@<TRIPOS>MOLECULE
CS1
   10     9     1     0     0
SMALL
RESP Charge
 
 
@<TRIPOS>ATOM
      1 N         -29.3360    6.6670    0.8360 N         1 CS1     -0.415700
      2 H         -29.4680    7.5170    0.8190 H         1 CS1      0.292426
      3 CA        -30.5020    5.8600    1.1760 CX        1 CS1      0.021300
      4 HA        -30.2230    5.1300    1.7500 H1        1 CS1      0.141098
      5 CB        -31.4980    6.7510    1.9190 2C        1 CS1      0.073124
      6 HB3       -32.2930    6.2500    2.1610 H1        1 CS1     -0.033112
      7 HB2       -31.7870    7.4870    1.3570 H1        1 CS1     -0.033112
      8 SG        -30.6450    7.3720    3.4090 Y6        1 CS1     -0.402181
      9 C         -31.1280    5.1760   -0.0320 C         1 CS1      0.597300
     10 O         -32.0620    4.3720    0.1340 O         1 CS1     -0.567900
@<TRIPOS>BOND
     1    1    2 1
     2    1    3 1
     3    3    4 1
     4    3    5 1
     5    3    9 1
     6    5    6 1
     7    5    7 1
     8    5    8 1
     9    9   10 1
@<TRIPOS>SUBSTRUCTURE
     1 CS1         1 TEMP              0 ****  ****    0 ROOT
