@<TRIPOS>MOLECULE
HD1
   17    17     1     0     0
SMALL
RESP Charge
 
 
@<TRIPOS>ATOM
      1 N         -30.0560   13.7580    0.0900 N         1 HD1     -0.415700
      2 H         -29.8470   13.7710    0.9240 H         1 HD1      0.375563
      3 CA        -31.4610   14.0660   -0.2040 CX        1 HD1      0.018800
      4 HA        -31.5060   14.6130   -1.0040 H1        1 HD1      0.081341
      5 CB        -32.2840   12.8040   -0.5540 CT        1 HD1     -0.412273
      6 HB2       -33.1400   13.0850   -0.9130 HC        1 HD1      0.197517
      7 HB3       -31.8240   12.3230   -1.2600 HC        1 HD1      0.197517
      8 CG        -32.5350   11.8520    0.5860 CC        1 HD1      0.083631
      9 ND1       -31.6090   10.9140    0.9880 NA        1 HD1     -0.335671
     10 HD1       -30.8270   10.8110    0.6460 H         1 HD1      0.341559
     11 CE1       -32.1070   10.1980    1.9800 CR        1 HD1      0.396213
     12 HE1       -31.6680    9.5120    2.4280 H5        1 HD1     -0.029571
     13 NE2       -33.3350   10.6220    2.2280 Y1        1 HD1     -0.229046
     14 CD2       -33.6260   11.6610    1.3700 CV        1 HD1     -0.197195
     15 HD2       -34.4220   12.1410    1.3350 H4        1 HD1      0.096799
     16 C         -32.0460   14.8630    0.9560 C         1 HD1      0.597300
     17 O         -31.3470   15.2010    1.9140 O         1 HD1     -0.567900
@<TRIPOS>BOND
     1    1    2 1
     2    1    3 1
     3    3    4 1
     4    3    5 1
     5    3   16 1
     6    5    6 1
     7    5    7 1
     8    5    8 1
     9    8    9 1
    10    8   14 1
    11    9   10 1
    12    9   11 1
    13   11   12 1
    14   11   13 1
    15   13   14 1
    16   14   15 1
    17   16   17 1
@<TRIPOS>SUBSTRUCTURE
     1 HD1         1 TEMP              0 ****  ****    0 ROOT
