@<TRIPOS>MOLECULE
HD3
   17    17     1     0     0
SMALL
RESP Charge
 
 
@<TRIPOS>ATOM
      1 N         -27.6380    3.0580    5.3750 N         1 HD3     -0.415700
      2 H         -27.7220    2.4860    4.7380 H         1 HD3      0.346634
      3 CA        -27.8200    2.4960    6.7080 CX        1 HD3      0.018800
      4 HA        -27.3720    3.0570    7.3600 H1        1 HD3      0.075945
      5 CB        -29.3050    2.4480    7.0920 CT        1 HD3      0.596139
      6 HB2       -29.7640    1.8200    6.5120 HC        1 HD3     -0.106008
      7 HB3       -29.3890    2.1120    7.9980 HC        1 HD3     -0.106008
      8 CG        -29.9740    3.7810    6.9990 CC        1 HD3     -0.210580
      9 ND1       -30.0220    4.6530    8.0610 NA        1 HD3     -0.215384
     10 HD1       -29.6900    4.5070    8.8410 H         1 HD3      0.342582
     11 CE1       -30.6600    5.7540    7.6940 CR        1 HD3      0.152012
     12 HE1       -30.8250    6.4920    8.2350 H5        1 HD3      0.111743
     13 NE2       -31.0220    5.6260    6.4290 Y7        1 HD3     -0.314073
     14 CD2       -30.6050    4.4000    5.9700 CV        1 HD3      0.015243
     15 HD2       -30.7320    4.0590    5.1140 H4        1 HD3      0.118226
     16 C         -27.2280    1.1040    6.7170 C         1 HD3      0.597300
     17 O         -27.5480    0.2930    5.8400 O         1 HD3     -0.567900
@<TRIPOS>BOND
     1    1    2 1
     2    1    3 1
     3    3    4 1
     4    3    5 1
     5    3   16 1
     6    5    6 1
     7    5    7 1
     8    5    8 1
     9    8    9 1
    10    8   14 1
    11    9   10 1
    12    9   11 1
    13   11   12 1
    14   11   13 1
    15   13   14 1
    16   14   15 1
    17   16   17 1
@<TRIPOS>SUBSTRUCTURE
     1 HD3         1 TEMP              0 ****  ****    0 ROOT
