@<TRIPOS>MOLECULE
P9T
   24    25     1     0     0
SMALL
bcc


@<TRIPOS>ATOM
      1 C02        -34.2200     3.3930     8.0830 c        403 P9T       0.738800
      2 C03        -33.8740     4.7400     8.1020 cc       403 P9T      -0.300200
      3 C04        -34.8840     5.6930     8.1270 cd       403 P9T       0.147600
      4 C05        -34.6460     7.0580     7.4830 c3       403 P9T      -0.293400
      5 C10        -36.1920     5.2930     8.4630 ca       403 P9T      -0.163800
      6 C11        -37.2040     6.2250     8.7680 ca       403 P9T       0.237900
      7 C13        -38.4800     5.7820     9.0940 ca       403 P9T      -0.261000
      8 C14        -38.7590     4.4190     9.1210 ca       403 P9T       0.179900
      9 C16        -37.7630     3.5000     8.8210 ca       403 P9T      -0.223000
     10 C17        -36.4690     3.9470     8.4900 ca       403 P9T       0.196100
     11 F12        -36.9360     7.5620     8.7430 f        403 P9T      -0.115900
     12 F15        -40.0130     3.9860     9.4410 f        403 P9T      -0.144900
     13 O01        -33.3760     2.5690     7.9630 o        403 P9T      -0.601500
     14 O07        -34.6360     8.3470     5.0430 o        403 P9T      -0.846000
     15 O08        -33.4700     6.1760     5.1470 o        403 P9T      -0.846000
     16 O09        -35.9340     6.2550     5.1790 oh       403 P9T      -0.794400
     17 O18        -35.5080     3.0200     8.2000 os       403 P9T      -0.344200
     18 P06        -34.6730     6.9540     5.6250 p5       403 P9T       1.324600
     19 H052       -35.3600     7.6900     7.7850 hc       403 P9T       0.088200
     20 H053       -33.7560     7.4070     7.7770 hc       403 P9T       0.088200
     21 H03        -32.9130     5.0180     8.0980 ha       403 P9T       0.182000
     22 H13        -39.1990     6.4430     9.3090 ha       403 P9T       0.158000
     23 H16        -37.9640     2.5210     8.8400 ha       403 P9T       0.165000
     24 H1         -36.7450     6.8200     5.3660 ho       403 P9T       0.429000
@<TRIPOS>BOND
     1     1     2 1   
     2     1    13 2   
     3     1    17 1   
     4     2     3 2   
     5     2    21 1   
     6     3     4 1   
     7     3     5 1   
     8     4    18 1   
     9     4    19 1   
    10     4    20 1   
    11     5     6 ar  
    12     5    10 ar  
    13     6     7 ar  
    14     6    11 1   
    15     7     8 ar  
    16     7    22 1   
    17     8     9 ar  
    18     8    12 1   
    19     9    10 ar  
    20     9    23 1   
    21    10    17 1   
    22    14    18 1   
    23    15    18 1   
    24    16    18 1   
    25    16    24 1   
@<TRIPOS>SUBSTRUCTURE
     1 P9T         1 TEMP              0 ****  ****    0 ROOT
