TWB
  xed2sdf           3D
 
 30 31  0  0  0  0  0  0  0  0999 V2000
   21.6020   13.9130    6.4820 C   0  0  0  0  0  0  0  0  0  0  0  0
   20.7590   14.6940    5.7360 C   0  0  0  0  0  0  0  0  0  0  0  0
   20.1750   15.8390    6.2610 C   0  0  0  0  0  0  0  0  0  0  0  0
   18.7100   17.6140    6.0400 C   0  0  0  0  0  0  0  0  0  0  0  0
   18.9740   18.0800    7.3640 C   0  0  0  0  0  0  0  0  0  0  0  0
   19.8330   17.3990    8.1430 C   0  0  0  0  0  0  0  0  0  0  0  0
   20.1010   17.9910    9.5090 C   0  0  0  0  0  0  0  0  0  0  0  0
   20.4600   16.2010    7.5780 C   0  0  0  0  0  0  0  0  0  0  0  0
   21.3170   15.3970    8.3290 C   0  0  0  0  0  0  0  0  0  0  0  0
   21.8830   14.2700    7.7980 C   0  0  0  0  0  0  0  0  0  0  0  0
   19.3200   16.5470    5.4660 O   0  0  0  0  0  0  0  0  0  0  0  0
   19.2960   17.9660   12.1070 O   0  5  0  0  0  0  0  0  0  0  0  0
   19.5090   15.7210   10.9010 O   0  5  0  0  0  0  0  0  0  0  0  0
   17.6080   17.3040   10.3440 O   0  0  0  0  0  0  0  0  0  0  0  0
   19.1340   17.1750   10.8310 P   0  0  0  0  0  0  0  0  0  0  0  0
   22.1820   12.6580    5.8460 C   0  0  0  0  0  0  0  0  0  0  0  0
   17.8620   18.2870    5.4700 O   0  0  0  0  0  0  0  0  0  0  0  0
   22.7830   13.4370    8.6980 C   0  0  0  0  0  0  0  0  0  0  0  0
   20.5510   14.4290    4.7950 H   0  0  0  0  0  0  0  0  0  0  0  0
   18.5130   18.8950    7.6950 H   0  0  0  0  0  0  0  0  0  0  0  0
   21.2740   17.9920    9.7620 H   0  0  0  0  0  0  0  0  0  0  0  0
   19.7130   19.1250    9.5370 H   0  0  0  0  0  0  0  0  0  0  0  0
   21.5120   15.6410    9.2790 H   0  0  0  0  0  0  0  0  0  0  0  0
   23.3790   12.6600    5.9270 H   0  0  0  0  0  0  0  0  0  0  0  0
   21.8910   12.5790    4.6850 H   0  0  0  0  0  0  0  0  0  0  0  0
   21.7450   11.6940    6.4130 H   0  0  0  0  0  0  0  0  0  0  0  0
   23.8070   13.1810    8.1270 H   0  0  0  0  0  0  0  0  0  0  0  0
   23.0450   14.0240    9.7120 H   0  0  0  0  0  0  0  0  0  0  0  0
   22.2070   12.4180    8.9680 H   0  0  0  0  0  0  0  0  0  0  0  0
   17.1280   17.9830   10.9030 H   0  0  0  0  0  0  0  0  0  0  0  0
  2  1  2  0
  3  2  1  0
  5  4  1  0
  6  5  2  0
  7  6  1  0
  8  3  2  0
  8  6  1  0
  9  8  1  0
 10  1  1  0
 10  9  2  0
 11  3  1  0
 11  4  1  0
 15  7  1  0
 15 12  1  0
 15 13  1  0
 15 14  1  0
 16  1  1  0
 17  4  2  0
 18 10  1  0
 19  2  1  0
 20  5  1  0
 21  7  1  0
 22  7  1  0
 23  9  1  0
 24 16  1  0
 25 16  1  0
 26 16  1  0
 27 18  1  0
 28 18  1  0
 29 18  1  0
 30 14  1  0
M  CHG  2  12  -1  13  -1
M  END
>  <Favorite_cresset>
false

>  <MW_cresset>
267.2

>  <#Atoms_cresset>
18

>  <SlogP_cresset>
1.7

>  <TPSA_cresset>
92.6

>  <Flexibility_cresset>
3

>  <#RB_cresset>
3

>  <Rof5_cresset>
0

>  <Filename_cresset>
lig_h_1.mol2

>  <Confs_cresset>
0

>  <Poses_cresset>
0

>  <Activity (Primary)_cresset>
No Primary Activity Set

$$$$
