TWB
  xed2sdf           3D
 
 24 25  0  0  0  0  0  0  0  0999 V2000
   21.7090   13.9710    6.5520 C   0  0  0  0  0  0  0  0  0  0  0  0
   20.8570   14.6390    5.7370 C   0  0  0  0  0  0  0  0  0  0  0  0
   20.2530   15.8020    6.2080 C   0  0  0  0  0  0  0  0  0  0  0  0
   18.7520   17.6320    5.9020 C   0  0  0  0  0  0  0  0  0  0  0  0
   19.0060   18.0520    7.2150 C   0  0  0  0  0  0  0  0  0  0  0  0
   19.8680   17.3830    8.0090 C   0  0  0  0  0  0  0  0  0  0  0  0
   20.0890   17.9540    9.4020 C   0  0  0  0  0  0  0  0  0  0  0  0
   20.5330   16.2260    7.5190 C   0  0  0  0  0  0  0  0  0  0  0  0
   21.4060   15.5690    8.3370 N   0  0  0  0  0  0  0  0  0  0  0  0
   21.9630   14.4630    7.8290 C   0  0  0  0  0  0  0  0  0  0  0  0
   19.3610   16.5360    5.3990 C   0  0  0  0  0  0  0  0  0  0  0  0
   19.2850   18.0460   11.9920 O   0  5  0  0  0  0  0  0  0  0  0  0
   19.3090   15.7550   10.8640 O   0  5  0  0  0  0  0  0  0  0  0  0
   17.5130   17.4520   10.3080 O   0  0  0  0  0  0  0  0  0  0  0  0
   19.0460   17.2330   10.7420 P   0  0  0  0  0  0  0  0  0  0  0  0
   22.1540   13.1310    6.2380 H   0  0  0  0  0  0  0  0  0  0  0  0
   20.6630   14.3030    4.8150 H   0  0  0  0  0  0  0  0  0  0  0  0
   18.5380   18.8630    7.5680 H   0  0  0  0  0  0  0  0  0  0  0  0
   21.2370   17.7980    9.7110 H   0  0  0  0  0  0  0  0  0  0  0  0
   19.8600   19.1320    9.3930 H   0  0  0  0  0  0  0  0  0  0  0  0
   22.6020   13.9550    8.4060 H   0  0  0  0  0  0  0  0  0  0  0  0
   17.1140   18.2010   10.8430 H   0  0  0  0  0  0  0  0  0  0  0  0
   18.1020   18.1470    5.3470 H   0  0  0  0  0  0  0  0  0  0  0  0
   19.1660   16.2380    4.4640 H   0  0  0  0  0  0  0  0  0  0  0  0
  2  1  2  0
  3  2  1  0
  5  4  1  0
  6  5  2  0
  7  6  1  0
  8  3  2  0
  8  6  1  0
  9  8  1  0
 10  1  1  0
 10  9  2  0
 11  3  1  0
 11  4  2  0
 15  7  1  0
 15 12  1  0
 15 13  1  0
 15 14  1  0
 16  1  1  0
 17  2  1  0
 18  5  1  0
 19  7  1  0
 20  7  1  0
 21 10  1  0
 22 14  1  0
 23  4  1  0
 24 11  1  0
M  CHG  2  12  -1  13  -1
M  END
>  <Favorite_cresset>
false

>  <MW_cresset>
222.2

>  <#Atoms_cresset>
15

>  <SlogP_cresset>
1.9

>  <TPSA_cresset>
79.2

>  <Flexibility_cresset>
3

>  <#RB_cresset>
3

>  <Rof5_cresset>
0

>  <Filename_cresset>
lig_h_14.mol2

>  <Confs_cresset>
0

>  <Poses_cresset>
0

>  <Activity (Primary)_cresset>
No Primary Activity Set

$$$$
