TWB_D (14)
  xed2sdf           3D
 
 27 29  0  0  0  0  0  0  0  0999 V2000
   21.1813   29.0248   40.4474 C   0  0  0  0  0  0  0  0  0  0  0  0
   22.2320   28.1589   40.5724 C   0  0  0  0  0  0  0  0  0  0  0  0
   23.4879   28.5945   40.1601 C   0  0  0  0  0  0  0  0  0  0  0  0
   25.7560   28.1691   39.9462 C   0  0  0  0  0  0  0  0  0  0  0  0
   26.0005   29.4656   39.3901 C   0  0  0  0  0  0  0  0  0  0  0  0
   24.9704   30.3130   39.1941 C   0  0  0  0  0  0  0  0  0  0  0  0
   25.2299   31.6788   38.5916 C   0  0  0  0  0  0  0  0  0  0  0  0
   23.6451   29.8844   39.6280 C   0  0  0  0  0  0  0  0  0  0  0  0
   22.5462   30.7497   39.5257 C   0  0  0  0  0  0  0  0  0  0  0  0
   21.3372   30.2835   39.9418 C   0  0  0  0  0  0  0  0  0  0  0  0
   24.5262   27.7233   40.2992 O   0  0  0  0  0  0  0  0  0  0  0  0
   25.6982   30.2455   36.2994 O   0  5  0  0  0  0  0  0  0  0  0  0
   26.2618   32.7349   36.2744 O   0  5  0  0  0  0  0  0  0  0  0  0
   23.8272   31.9720   36.2492 O   0  0  0  0  0  0  0  0  0  0  0  0
   25.3284   31.6420   36.7480 P   0  0  0  0  0  0  0  0  0  0  0  0
   19.9162   28.8216   40.7681 O   0  0  0  0  0  0  0  0  0  0  0  0
   26.7486   27.4581   40.0767 O   0  0  0  0  0  0  0  0  0  0  0  0
   20.1701   30.9138   39.9313 O   0  0  0  0  0  0  0  0  0  0  0  0
   19.1458   30.0227   40.4634 C   0  0  0  0  0  0  0  0  0  0  0  0
   22.1020   27.2414   40.9483 H   0  0  0  0  0  0  0  0  0  0  0  0
   26.9310   29.7415   39.1487 H   0  0  0  0  0  0  0  0  0  0  0  0
   26.0934   32.0299   38.9531 H   0  0  0  0  0  0  0  0  0  0  0  0
   24.4598   32.2670   38.8383 H   0  0  0  0  0  0  0  0  0  0  0  0
   22.6473   31.6751   39.1606 H   0  0  0  0  0  0  0  0  0  0  0  0
   23.3768   32.6263   36.8665 H   0  0  0  0  0  0  0  0  0  0  0  0
   18.4340   29.8387   39.7855 H   0  0  0  0  0  0  0  0  0  0  0  0
   18.6561   30.3967   41.2510 H   0  0  0  0  0  0  0  0  0  0  0  0
  2  1  2  0
  3  2  1  0
  5  4  1  0
  6  5  2  0
  7  6  1  0
  8  3  2  0
  8  6  1  0
  9  8  1  0
 10  1  1  0
 10  9  2  0
 11  3  1  0
 11  4  1  0
 15  7  1  0
 15 12  1  0
 15 13  1  0
 15 14  1  0
 16  1  1  0
 17  4  2  0
 18 10  1  0
 18 19  1  0
 19 16  1  0
  2 20  1  0
  5 21  1  0
  7 22  1  0
  7 23  1  0
  9 24  1  0
 14 25  1  0
 19 26  1  0
 19 27  1  0
M  CHG  2  12  -1  13  -1
M  END
>  <BioMolTech Lead Finder dG>
-8.593

>  <BioMolTech Lead Finder VSscore>
-16.478

>  <BioMolTech Lead Finder Rank score>
-16.004

>  <BioMolTech Lead Finder LE>
-0.452

>  <BioMolTech Lead Finder Structure Name>
/var/folders/s3/bsl1r71j5vv92phr7p9f9skw0000gn/T/LeadFinder_54847_1/Ligand_1.sdf

>  <BioMolTech Lead Finder SDF id>
0

>  <BioMolTech Lead Finder Pose rank>
0

>  <BioMolTech Lead Finder version>
2104 1, 18 April 2021

>  <LF dG>
-8.593

>  <LF VSscore>
-16.478

>  <LF Rank Score>
-16.004

>  <LF LE>
-0.452

>  <Preferred Pose_cresset>
true

>  <Favorite_cresset>
false

>  <Protein_cresset>
vim2_solv.gromacs

>  <MW_cresset>
283.2

>  <#Atoms_cresset>
19

>  <SlogP_cresset>
0.8

>  <TPSA_cresset>
111.1

>  <Flexibility_cresset>
3.2

>  <#RB_cresset>
3

>  <Rof5_cresset>
0

>  <Filename_cresset>
lig_h_3.mol2

>  <Confs_cresset>
0

>  <Poses_cresset>
9

>  <Activity (Primary)_cresset>
No Primary Activity Set

>  <_cresset_fieldpoints2>
 2
    -5      23.140387      30.860783      34.849724    -11.8958
    -5      26.793060      25.771225      40.683884    -15.6213
    -5      28.505209      27.427011      39.705879    -15.2651
    -5      27.559437      33.830105      35.390331     -9.2444
    -5      26.195389      28.401791      36.163811    -10.8505
    -5      18.969809      27.006710      41.576836     -3.0715
    -5      19.521273      32.902512      39.287842     -2.4002
    -6      16.367722      30.507595      40.737938      3.2639
    -6      21.550610      25.488369      41.845680      1.7879
    -6      22.880455      33.592690      38.397560     13.0985
    -6      27.752499      31.606752      40.244263      3.7051
    -7      21.001299      30.914677      43.164276     -1.7786
    -7      22.588501      33.989460      38.457684     -1.8258
    -7      28.492058      31.295200      37.834869     -1.6152
    -7      26.168476      34.738754      37.855701     -1.3160
    -7      19.968765      28.776169      37.368523     -1.8104
    -7      25.576340      30.816536      42.107574     -2.1268
    -7      24.572079      28.216461      36.933170     -2.7788
    -7      23.086401      30.671902      42.942841     -1.9525
    -8      24.038086      30.870060      39.186161      5.6160
    -8      22.454332      29.467075      40.028267      6.7683
    -8      24.832581      30.471653      39.198334      5.4723
    -8      24.730640      29.582863      39.572163      5.4194
    -8      18.021805      30.207294      40.576347      1.8685

$$$$
