TWB_D (12)
  xed2sdf           3D
 
 24 25  0  0  0  0  0  0  0  0999 V2000
   24.3306   26.4151   39.9562 C   0  0  0  0  0  0  0  0  0  0  0  0
   23.1837   27.1252   39.9823 C   0  0  0  0  0  0  0  0  0  0  0  0
   23.1712   28.4926   39.6282 C   0  0  0  0  0  0  0  0  0  0  0  0
   21.9986   30.4285   39.3461 C   0  0  0  0  0  0  0  0  0  0  0  0
   23.1444   31.1010   38.9437 C   0  0  0  0  0  0  0  0  0  0  0  0
   24.3371   30.4578   38.8796 C   0  0  0  0  0  0  0  0  0  0  0  0
   25.5363   31.2752   38.4222 C   0  0  0  0  0  0  0  0  0  0  0  0
   24.3766   29.1057   39.2391 C   0  0  0  0  0  0  0  0  0  0  0  0
   25.5611   28.3326   39.2305 C   0  0  0  0  0  0  0  0  0  0  0  0
   25.5364   27.0281   39.5772 C   0  0  0  0  0  0  0  0  0  0  0  0
   21.9719   29.1391   39.6886 N   0  0  0  0  0  0  0  0  0  0  0  0
   25.8939   30.2666   35.8965 O   0  5  0  0  0  0  0  0  0  0  0  0
   26.4228   32.7349   36.2744 O   0  5  0  0  0  0  0  0  0  0  0  0
   23.9974   31.9305   36.2746 O   0  0  0  0  0  0  0  0  0  0  0  0
   25.5349   31.5547   36.6031 P   0  0  0  0  0  0  0  0  0  0  0  0
   24.3223   25.4473   40.2077 H   0  0  0  0  0  0  0  0  0  0  0  0
   22.3321   26.6780   40.2557 H   0  0  0  0  0  0  0  0  0  0  0  0
   21.1409   30.9415   39.3812 H   0  0  0  0  0  0  0  0  0  0  0  0
   23.0902   32.0692   38.6991 H   0  0  0  0  0  0  0  0  0  0  0  0
   26.3734   30.7904   38.6753 H   0  0  0  0  0  0  0  0  0  0  0  0
   25.4866   32.1685   38.8686 H   0  0  0  0  0  0  0  0  0  0  0  0
   26.4266   28.7570   38.9648 H   0  0  0  0  0  0  0  0  0  0  0  0
   26.3820   26.4945   39.5641 H   0  0  0  0  0  0  0  0  0  0  0  0
   23.6340   32.5878   36.9440 H   0  0  0  0  0  0  0  0  0  0  0  0
  2  1  2  0
  3  2  1  0
  5  4  1  0
  6  5  2  0
  7  6  1  0
  8  3  2  0
  8  6  1  0
  9  8  1  0
 10  1  1  0
 10  9  2  0
 11  3  1  0
 11  4  2  0
 15  7  1  0
 15 12  1  0
 15 13  1  0
 15 14  1  0
  1 16  1  0
  2 17  1  0
  4 18  1  0
  5 19  1  0
  7 20  1  0
  7 21  1  0
  9 22  1  0
 10 23  1  0
 14 24  1  0
M  CHG  2  12  -1  13  -1
M  END
>  <BioMolTech Lead Finder dG>
-7.754

>  <BioMolTech Lead Finder VSscore>
-15.371

>  <BioMolTech Lead Finder Rank score>
-14.793

>  <BioMolTech Lead Finder LE>
-0.517

>  <BioMolTech Lead Finder Structure Name>
/var/folders/s3/bsl1r71j5vv92phr7p9f9skw0000gn/T/LeadFinder_54619_1/Ligand_1.sdf

>  <BioMolTech Lead Finder SDF id>
0

>  <BioMolTech Lead Finder Pose rank>
0

>  <BioMolTech Lead Finder version>
2104 1, 18 April 2021

>  <LF dG>
-7.754

>  <LF VSscore>
-15.371

>  <LF Rank Score>
-14.793

>  <LF LE>
-0.517

>  <Preferred Pose_cresset>
true

>  <Favorite_cresset>
false

>  <Protein_cresset>
vim2_solv.gromacs

>  <MW_cresset>
222.2

>  <#Atoms_cresset>
15

>  <SlogP_cresset>
1.9

>  <TPSA_cresset>
79.2

>  <Flexibility_cresset>
3

>  <#RB_cresset>
3

>  <Rof5_cresset>
0

>  <Filename_cresset>
ligand_15.sdf

>  <Confs_cresset>
0

>  <Poses_cresset>
9

>  <Activity (Primary)_cresset>
No Primary Activity Set

>  <_cresset_fieldpoints2>
 2
    -5      23.036404      30.489294      35.459442    -12.9318
    -5      20.297897      28.315550      40.118282    -11.5964
    -5      25.793945      28.512447      35.136696    -10.6066
    -5      27.686863      33.967926      35.535244     -9.1379
    -6      26.439468      24.204597      40.226334      2.4527
    -6      23.889679      33.854088      38.356071     12.5223
    -6      28.176756      29.830008      39.412022      4.3107
    -7      27.766190      29.037121      36.906822     -2.1680
    -7      24.506941      29.961391      42.369766     -2.0874
    -7      22.091755      24.066013      40.977837     -0.9695
    -7      26.536522      23.845667      40.202103     -0.9756
    -7      24.153355      34.339603      38.251144     -1.9814
    -7      23.884605      28.616417      36.065262     -2.7560
    -7      27.599209      33.818527      38.180115     -1.3795
    -7      19.890472      27.921848      40.307510     -1.4714
    -8      24.429243      30.471142      38.879700      5.5713
    -8      24.386585      27.746479      39.598217      7.0057
    -8      25.170914      29.812542      38.918770      5.5642
    -8      23.607038      29.981878      39.157333      5.6592

$$$$
