TWB_D (8)
  xed2sdf           3D
 
 25 26  0  0  0  0  0  0  0  0999 V2000
   21.0727   29.2561   40.5016 C   0  0  0  0  0  0  0  0  0  0  0  0
   22.1066   28.3721   40.6267 C   0  0  0  0  0  0  0  0  0  0  0  0
   23.3810   28.7239   40.1963 C   0  0  0  0  0  0  0  0  0  0  0  0
   25.6982   28.1153   39.9751 C   0  0  0  0  0  0  0  0  0  0  0  0
   25.9641   29.4022   39.3899 C   0  0  0  0  0  0  0  0  0  0  0  0
   24.9690   30.3007   39.1948 C   0  0  0  0  0  0  0  0  0  0  0  0
   25.3081   31.6494   38.5950 C   0  0  0  0  0  0  0  0  0  0  0  0
   23.6088   29.9733   39.6313 C   0  0  0  0  0  0  0  0  0  0  0  0
   22.5395   30.8632   39.5191 C   0  0  0  0  0  0  0  0  0  0  0  0
   21.2923   30.5085   39.9459 C   0  0  0  0  0  0  0  0  0  0  0  0
   24.4345   27.8362   40.3346 N   0  0  0  0  0  0  0  0  0  0  0  0
   25.7188   30.2347   36.2805 O   0  5  0  0  0  0  0  0  0  0  0  0
   26.3138   32.7150   36.2752 O   0  5  0  0  0  0  0  0  0  0  0  0
   23.8680   31.9873   36.2849 O   0  0  0  0  0  0  0  0  0  0  0  0
   25.3733   31.6299   36.7512 P   0  0  0  0  0  0  0  0  0  0  0  0
   26.6378   27.3353   40.1161 O   0  0  0  0  0  0  0  0  0  0  0  0
   20.1568   29.0002   40.8105 H   0  0  0  0  0  0  0  0  0  0  0  0
   21.9466   27.4704   41.0287 H   0  0  0  0  0  0  0  0  0  0  0  0
   26.8987   29.6376   39.1232 H   0  0  0  0  0  0  0  0  0  0  0  0
   26.1993   31.9387   38.9439 H   0  0  0  0  0  0  0  0  0  0  0  0
   24.5803   32.2825   38.8583 H   0  0  0  0  0  0  0  0  0  0  0  0
   22.6883   31.7690   39.1226 H   0  0  0  0  0  0  0  0  0  0  0  0
   20.5335   31.1538   39.8576 H   0  0  0  0  0  0  0  0  0  0  0  0
   24.2723   27.0438   40.6836 H   0  0  0  0  0  0  0  0  0  0  0  0
   23.4335   32.6289   36.9266 H   0  0  0  0  0  0  0  0  0  0  0  0
  2  1  2  0
  3  2  1  0
  5  4  1  0
  6  5  2  0
  7  6  1  0
  8  3  2  0
  8  6  1  0
  9  8  1  0
 10  1  1  0
 10  9  2  0
 11  3  1  0
 11  4  1  0
 15  7  1  0
 15 12  1  0
 15 13  1  0
 15 14  1  0
 16  4  2  0
  1 17  1  0
  2 18  1  0
  5 19  1  0
  7 20  1  0
  7 21  1  0
  9 22  1  0
 10 23  1  0
 11 24  1  0
 14 25  1  0
M  CHG  2  12  -1  13  -1
M  END
>  <BioMolTech Lead Finder dG>
-8.226

>  <BioMolTech Lead Finder VSscore>
-16.048

>  <BioMolTech Lead Finder Rank score>
-15.564

>  <BioMolTech Lead Finder LE>
-0.514

>  <BioMolTech Lead Finder Structure Name>
/var/folders/s3/bsl1r71j5vv92phr7p9f9skw0000gn/T/LeadFinder_54623_1/Ligand_1.sdf

>  <BioMolTech Lead Finder SDF id>
0

>  <BioMolTech Lead Finder Pose rank>
0

>  <BioMolTech Lead Finder version>
2104 1, 18 April 2021

>  <LF dG>
-8.226

>  <LF VSscore>
-16.048

>  <LF Rank Score>
-15.564

>  <LF LE>
-0.514

>  <Preferred Pose_cresset>
true

>  <Favorite_cresset>
false

>  <Protein_cresset>
vim2_solv.gromacs

>  <MW_cresset>
238.2

>  <#Atoms_cresset>
16

>  <SlogP_cresset>
1.1

>  <TPSA_cresset>
95.5

>  <Flexibility_cresset>
3

>  <#RB_cresset>
3

>  <Rof5_cresset>
0

>  <Filename_cresset>
ligand_11.sdf

>  <Confs_cresset>
0

>  <Poses_cresset>
10

>  <Activity (Primary)_cresset>
No Primary Activity Set

>  <_cresset_fieldpoints2>
 2
    -5      28.363506      27.232365      39.718117    -16.8483
    -5      22.789322      30.652264      42.811771     -2.0407
    -5      23.096764      30.751406      35.042793    -12.1968
    -5      27.605389      33.805649      35.376839     -9.3758
    -5      26.048687      28.349785      36.336952    -11.2111
    -6      23.140690      25.727608      41.491142      8.1103
    -6      18.275438      30.316332      40.765152      2.7259
    -6      23.003422      33.677460      38.422890     12.9266
    -6      28.015064      31.438265      39.971268      3.1988
    -7      24.508526      28.228394      36.969490     -2.8425
    -7      19.555969      26.606415      41.995972     -0.9707
    -7      28.528992      31.057228      37.755203     -1.6075
    -7      17.969063      30.632994      40.627640     -0.9704
    -7      22.857822      34.126511      38.484390     -1.8118
    -7      25.591190      30.462097      42.210270     -2.1887
    -7      23.464603      30.847546      42.870857     -1.8776
    -8      22.318443      29.639229      40.064274      7.0489
    -8      24.055389      30.911070      39.184647      5.5926
    -8      24.850975      30.477211      39.197762      5.4543

$$$$
