TWB_D (9)
  xed2sdf           3D
 
 28 29  0  0  0  0  0  0  0  0999 V2000
   25.0337   26.5278   40.0271 C   0  0  0  0  0  0  0  0  0  0  0  0
   23.7983   27.0915   40.1728 C   0  0  0  0  0  0  0  0  0  0  0  0
   23.5882   28.4335   39.8610 C   0  0  0  0  0  0  0  0  0  0  0  0
   22.0810   30.3000   39.6637 C   0  0  0  0  0  0  0  0  0  0  0  0
   23.1648   31.1117   39.1816 C   0  0  0  0  0  0  0  0  0  0  0  0
   24.4163   30.6092   39.0723 C   0  0  0  0  0  0  0  0  0  0  0  0
   25.5154   31.5062   38.5416 C   0  0  0  0  0  0  0  0  0  0  0  0
   24.6548   29.2013   39.4013 C   0  0  0  0  0  0  0  0  0  0  0  0
   25.9087   28.6057   39.2549 C   0  0  0  0  0  0  0  0  0  0  0  0
   26.0955   27.2901   39.5640 C   0  0  0  0  0  0  0  0  0  0  0  0
   22.3309   29.0170   39.9943 N   0  0  0  0  0  0  0  0  0  0  0  0
   25.8920   30.2531   36.1328 O   0  5  0  0  0  0  0  0  0  0  0  0
   26.4443   32.7400   36.2716 O   0  5  0  0  0  0  0  0  0  0  0  0
   24.0124   31.9663   36.2965 O   0  0  0  0  0  0  0  0  0  0  0  0
   25.5356   31.6091   36.7003 P   0  0  0  0  0  0  0  0  0  0  0  0
   20.9846   30.8541   39.7412 O   0  0  0  0  0  0  0  0  0  0  0  0
   21.2070   28.2166   40.5124 C   0  0  0  0  0  0  0  0  0  0  0  0
   25.1729   25.5639   40.2546 H   0  0  0  0  0  0  0  0  0  0  0  0
   23.0369   26.5357   40.5067 H   0  0  0  0  0  0  0  0  0  0  0  0
   22.9913   32.0623   38.9237 H   0  0  0  0  0  0  0  0  0  0  0  0
   26.3968   31.1508   38.8529 H   0  0  0  0  0  0  0  0  0  0  0  0
   25.3430   32.4275   38.8896 H   0  0  0  0  0  0  0  0  0  0  0  0
   26.6784   29.1490   38.9198 H   0  0  0  0  0  0  0  0  0  0  0  0
   26.9989   26.8752   39.4566 H   0  0  0  0  0  0  0  0  0  0  0  0
   23.6081   32.6154   36.9499 H   0  0  0  0  0  0  0  0  0  0  0  0
   20.3859   28.7867   40.5384 H   0  0  0  0  0  0  0  0  0  0  0  0
   21.0511   27.4283   39.9172 H   0  0  0  0  0  0  0  0  0  0  0  0
   21.4217   27.8915   41.4335 H   0  0  0  0  0  0  0  0  0  0  0  0
  2  1  2  0
  3  2  1  0
  5  4  1  0
  6  5  2  0
  7  6  1  0
  8  3  2  0
  8  6  1  0
  9  8  1  0
 10  1  1  0
 10  9  2  0
 11  3  1  0
 11  4  1  0
 15  7  1  0
 15 12  1  0
 15 13  1  0
 15 14  1  0
 16  4  2  0
 17 11  1  0
  1 18  1  0
  2 19  1  0
  5 20  1  0
  7 21  1  0
  7 22  1  0
  9 23  1  0
 10 24  1  0
 14 25  1  0
 17 26  1  0
 17 27  1  0
 17 28  1  0
M  CHG  2  12  -1  13  -1
M  END
>  <BioMolTech Lead Finder dG>
-8.386

>  <BioMolTech Lead Finder VSscore>
-16.136

>  <BioMolTech Lead Finder Rank score>
-15.696

>  <BioMolTech Lead Finder LE>
-0.493

>  <BioMolTech Lead Finder Structure Name>
/var/folders/s3/bsl1r71j5vv92phr7p9f9skw0000gn/T/LeadFinder_54620_1/Ligand_1.sdf

>  <BioMolTech Lead Finder SDF id>
0

>  <BioMolTech Lead Finder Pose rank>
0

>  <BioMolTech Lead Finder version>
2104 1, 18 April 2021

>  <LF dG>
-8.386

>  <LF VSscore>
-16.136

>  <LF Rank Score>
-15.696

>  <LF LE>
-0.493

>  <Preferred Pose_cresset>
true

>  <Favorite_cresset>
false

>  <Protein_cresset>
vim2_solv.gromacs

>  <MW_cresset>
252.2

>  <#Atoms_cresset>
17

>  <SlogP_cresset>
1.2

>  <TPSA_cresset>
86.7

>  <Flexibility_cresset>
3

>  <#RB_cresset>
3

>  <Rof5_cresset>
0

>  <Filename_cresset>
ligand_12.sdf

>  <Confs_cresset>
0

>  <Poses_cresset>
8

>  <Activity (Primary)_cresset>
No Primary Activity Set

>  <_cresset_fieldpoints2>
 2
    -5      25.685600      28.367533      35.873962    -10.8309
    -5      23.090130      30.597385      35.326660    -12.7930
    -5      25.559734      28.510128      42.482082     -2.4834
    -5      27.688519      33.911667      35.409100     -9.3159
    -5      20.034431      32.336403      39.482410    -16.0627
    -6      21.456684      25.463474      41.285915      5.1589
    -6      23.814785      33.915722      38.326405     11.4701
    -6      26.755577      32.567604      40.800709      3.4713
    -6      28.360277      30.384277      39.367744      3.9375
    -7      22.827904      29.566317      36.641624     -2.9923
    -7      25.313644      29.063835      42.701782     -1.9204
    -7      27.575294      24.273964      40.065170     -0.9708
    -7      23.874247      34.433884      38.209610     -1.6966
    -7      28.150040      29.537998      37.006287     -1.9862
    -7      28.138186      33.386505      38.028145     -1.3251
    -7      23.547543      30.648710      42.262070     -2.3244
    -7      21.413893      25.082050      41.559525     -1.3699
    -8      24.870430      27.857346      39.709068      7.0577
    -8      23.889914      30.024693      39.336861      5.3720
    -8      25.334023      30.030827      39.026398      5.5774
    -8      24.584908      30.574699      39.027580      5.4653
    -8      20.713722      27.647114      40.798561      2.6156

$$$$
