TWB_D (4)
  xed2sdf           3D
 
 27 28  0  0  0  0  0  0  0  0999 V2000
   20.9439   29.3122   40.2792 C   0  0  0  0  0  0  0  0  0  0  0  0
   21.9313   28.3719   40.3928 C   0  0  0  0  0  0  0  0  0  0  0  0
   23.2332   28.6534   40.0056 C   0  0  0  0  0  0  0  0  0  0  0  0
   25.4438   27.9923   39.8268 C   0  0  0  0  0  0  0  0  0  0  0  0
   25.8341   29.2651   39.2926 C   0  0  0  0  0  0  0  0  0  0  0  0
   24.9035   30.2167   39.0933 C   0  0  0  0  0  0  0  0  0  0  0  0
   25.3251   31.5669   38.5515 C   0  0  0  0  0  0  0  0  0  0  0  0
   23.5287   29.9141   39.4899 C   0  0  0  0  0  0  0  0  0  0  0  0
   22.5114   30.8620   39.3847 C   0  0  0  0  0  0  0  0  0  0  0  0
   21.2349   30.5672   39.7712 C   0  0  0  0  0  0  0  0  0  0  0  0
   24.1684   27.6757   40.1566 O   0  0  0  0  0  0  0  0  0  0  0  0
   26.3102   32.7344   36.2731 O   0  5  0  0  0  0  0  0  0  0  0  0
   25.7362   30.2512   36.1783 O   0  5  0  0  0  0  0  0  0  0  0  0
   23.8736   31.9921   36.2671 O   0  0  0  0  0  0  0  0  0  0  0  0
   25.3824   31.6224   36.7091 P   0  0  0  0  0  0  0  0  0  0  0  0
   26.3544   27.1820   39.9667 O   0  0  0  0  0  0  0  0  0  0  0  0
   20.1526   31.6210   39.6470 C   0  0  0  0  0  0  0  0  0  0  0  0
   20.0107   29.0927   40.5633 H   0  0  0  0  0  0  0  0  0  0  0  0
   21.7111   27.4684   40.7605 H   0  0  0  0  0  0  0  0  0  0  0  0
   26.7922   29.4445   39.0700 H   0  0  0  0  0  0  0  0  0  0  0  0
   26.2341   31.7842   38.9071 H   0  0  0  0  0  0  0  0  0  0  0  0
   24.6403   32.2329   38.8471 H   0  0  0  0  0  0  0  0  0  0  0  0
   22.7193   31.7701   39.0211 H   0  0  0  0  0  0  0  0  0  0  0  0
   23.4477   32.6217   36.9260 H   0  0  0  0  0  0  0  0  0  0  0  0
   20.5528   32.4556   39.2685 H   0  0  0  0  0  0  0  0  0  0  0  0
   19.4275   31.2909   39.0425 H   0  0  0  0  0  0  0  0  0  0  0  0
   19.7634   31.8116   40.5481 H   0  0  0  0  0  0  0  0  0  0  0  0
  2  1  2  0
  3  2  1  0
  5  4  1  0
  6  5  2  0
  7  6  1  0
  8  3  2  0
  8  6  1  0
  9  8  1  0
 10  1  1  0
 10  9  2  0
 11  3  1  0
 11  4  1  0
 15  7  1  0
 15 12  1  0
 15 13  1  0
 15 14  1  0
 16  4  2  0
 17 10  1  0
  1 18  1  0
  2 19  1  0
  5 20  1  0
  7 21  1  0
  7 22  1  0
  9 23  1  0
 14 24  1  0
 17 25  1  0
 17 26  1  0
 17 27  1  0
M  CHG  2  12  -1  13  -1
M  END
>  <BioMolTech Lead Finder dG>
-8.301

>  <BioMolTech Lead Finder VSscore>
-16.132

>  <BioMolTech Lead Finder Rank score>
-15.607

>  <BioMolTech Lead Finder LE>
-0.488

>  <BioMolTech Lead Finder Structure Name>
/var/folders/s3/bsl1r71j5vv92phr7p9f9skw0000gn/T/LeadFinder_54619_1/Ligand_1.sdf

>  <BioMolTech Lead Finder SDF id>
0

>  <BioMolTech Lead Finder Pose rank>
0

>  <BioMolTech Lead Finder version>
2104 1, 18 April 2021

>  <LF dG>
-8.301

>  <LF VSscore>
-16.132

>  <LF Rank Score>
-15.607

>  <LF LE>
-0.488

>  <Preferred Pose_cresset>
true

>  <Favorite_cresset>
false

>  <Protein_cresset>
vim2_solv.gromacs

>  <MW_cresset>
253.2

>  <#Atoms_cresset>
17

>  <SlogP_cresset>
1.4

>  <TPSA_cresset>
92.7

>  <Flexibility_cresset>
3

>  <#RB_cresset>
3

>  <Rof5_cresset>
0

>  <Filename_cresset>
ligand_5.sdf

>  <Confs_cresset>
0

>  <Poses_cresset>
10

>  <Activity (Primary)_cresset>
No Primary Activity Set

>  <_cresset_fieldpoints2>
 2
    -5      26.212135      25.493092      40.564030    -15.3527
    -5      22.396950      30.566460      42.748325     -1.7661
    -5      26.100372      28.432945      35.702362    -10.6475
    -5      28.111275      26.936117      39.645683    -14.9206
    -5      23.094522      30.833317      34.957405    -11.9828
    -5      27.596439      33.864807      35.417210     -9.2254
    -6      17.997437      29.629456      40.897171      3.1097
    -6      23.055878      33.667572      38.435310     13.6089
    -6      19.212753      27.212456      41.448280      2.8898
    -6      27.864246      31.143379      40.142166      3.7902
    -7      23.060726      30.845604      42.749344     -1.9753
    -7      22.770008      29.574860      36.333679     -2.5726
    -7      17.639320      29.896389      40.811890     -1.3722
    -7      24.389484      28.291113      36.744644     -2.7724
    -7      19.189693      26.752754      41.609688     -0.9946
    -7      28.452946      30.627544      37.560478     -1.6174
    -7      25.475225      30.636501      42.023891     -2.1468
    -7      22.755070      34.072456      38.493000     -2.1844
    -8      22.210064      29.642799      39.881367      7.0647
    -8      24.019653      30.857067      39.087791      5.6144
    -8      24.574909      29.511444      39.452164      5.4390
    -8      24.790018      30.377501      39.115715      5.4806

$$$$
