TWB
  xed2sdf           3D
 
 24 25  0  0  0  0  0  0  0  0999 V2000
   21.4700   14.0670    6.2360 C   0  0  0  0  0  0  0  0  0  0  0  0
   20.5460   14.8330    5.5720 C   0  0  0  0  0  0  0  0  0  0  0  0
   20.0110   15.9680    6.1580 C   0  0  0  0  0  0  0  0  0  0  0  0
   18.5420   17.7510    6.0430 C   0  0  0  0  0  0  0  0  0  0  0  0
   18.8580   18.1770    7.3660 C   0  0  0  0  0  0  0  0  0  0  0  0
   19.7640   17.4920    8.0880 C   0  0  0  0  0  0  0  0  0  0  0  0
   20.0170   18.0810    9.4630 C   0  0  0  0  0  0  0  0  0  0  0  0
   20.3960   16.3310    7.4540 C   0  0  0  0  0  0  0  0  0  0  0  0
   21.3600   15.5510    8.0980 C   0  0  0  0  0  0  0  0  0  0  0  0
   21.8890   14.4370    7.5040 C   0  0  0  0  0  0  0  0  0  0  0  0
   19.1030   16.6790    5.4330 O   0  0  0  0  0  0  0  0  0  0  0  0
   19.3370   17.9820   12.0950 O   0  5  0  0  0  0  0  0  0  0  0  0
   19.6539   15.7560   10.8850 O   0  5  0  0  0  0  0  0  0  0  0  0
   17.6160   17.1890   10.4220 O   0  0  0  0  0  0  0  0  0  0  0  0
   19.1730   17.1810   10.8260 P   0  0  0  0  0  0  0  0  0  0  0  0
   21.9630   12.9630    5.6570 F   0  0  0  0  0  0  0  0  0  0  0  0
   17.7000   18.4590    5.5070 O   0  0  0  0  0  0  0  0  0  0  0  0
   21.7820   15.8920    9.3110 F   0  0  0  0  0  0  0  0  0  0  0  0
   20.2480   14.5680    4.6530 H   0  0  0  0  0  0  0  0  0  0  0  0
   18.3950   18.9700    7.7380 H   0  0  0  0  0  0  0  0  0  0  0  0
   21.1900   18.2010    9.6820 H   0  0  0  0  0  0  0  0  0  0  0  0
   19.5360   19.1770    9.5460 H   0  0  0  0  0  0  0  0  0  0  0  0
   17.1800   18.0310   10.7490 H   0  0  0  0  0  0  0  0  0  0  0  0
   22.5730   13.8900    7.9890 H   0  0  0  0  0  0  0  0  0  0  0  0
  2  1  2  0
  3  2  1  0
  5  4  1  0
  6  5  2  0
  7  6  1  0
  8  3  2  0
  8  6  1  0
  9  8  1  0
 10  1  1  0
 10  9  2  0
 11  3  1  0
 11  4  1  0
 15  7  1  0
 15 12  1  0
 15 13  1  0
 15 14  1  0
 16  1  1  0
 17  4  2  0
 18  9  1  0
 19  2  1  0
 20  5  1  0
 21  7  1  0
 22  7  1  0
 23 14  1  0
 24 10  1  0
M  CHG  2  12  -1  13  -1
M  END
>  <Favorite_cresset>
false

>  <MW_cresset>
275.1

>  <#Atoms_cresset>
18

>  <SlogP_cresset>
1.9

>  <TPSA_cresset>
92.6

>  <Flexibility_cresset>
3

>  <#RB_cresset>
3

>  <Rof5_cresset>
0

>  <Filename_cresset>
lig_h_8.mol2

>  <Confs_cresset>
0

>  <Poses_cresset>
0

>  <Activity (Primary)_cresset>
No Primary Activity Set

$$$$
