TWB
  xed2sdf           3D
 
 28 29  0  0  0  0  0  0  0  0999 V2000
   21.6020   13.9240    6.4120 C   0  0  0  0  0  0  0  0  0  0  0  0
   20.7600   14.7350    5.6940 C   0  0  0  0  0  0  0  0  0  0  0  0
   20.1770   15.8550    6.2590 C   0  0  0  0  0  0  0  0  0  0  0  0
   18.7090   17.6270    6.0700 C   0  0  0  0  0  0  0  0  0  0  0  0
   18.9870   18.0730    7.3950 C   0  0  0  0  0  0  0  0  0  0  0  0
   19.8450   17.3780    8.1640 C   0  0  0  0  0  0  0  0  0  0  0  0
   20.1190   17.9660    9.5300 C   0  0  0  0  0  0  0  0  0  0  0  0
   20.4650   16.1840    7.5870 C   0  0  0  0  0  0  0  0  0  0  0  0
   21.3210   15.3580    8.3180 C   0  0  0  0  0  0  0  0  0  0  0  0
   21.8810   14.2520    7.7400 C   0  0  0  0  0  0  0  0  0  0  0  0
   19.3210   16.5720    5.4820 O   0  0  0  0  0  0  0  0  0  0  0  0
   19.3100   17.9540   12.1250 O   0  5  0  0  0  0  0  0  0  0  0  0
   19.5420   15.7040   10.9310 O   0  5  0  0  0  0  0  0  0  0  0  0
   17.6250   17.2690   10.3680 O   0  0  0  0  0  0  0  0  0  0  0  0
   19.1530   17.1550   10.8540 P   0  0  0  0  0  0  0  0  0  0  0  0
   22.1030   12.8420    5.8080 O   0  0  0  0  0  0  0  0  0  0  0  0
   17.8560   18.2980    5.5050 O   0  0  0  0  0  0  0  0  0  0  0  0
   22.3750   11.6820    6.6140 C   0  0  0  0  0  0  0  0  0  0  0  0
   20.5500   14.5050    4.7440 H   0  0  0  0  0  0  0  0  0  0  0  0
   18.5340   18.8840    7.7380 H   0  0  0  0  0  0  0  0  0  0  0  0
   21.2910   17.9530    9.7840 H   0  0  0  0  0  0  0  0  0  0  0  0
   19.7500   19.1060    9.5740 H   0  0  0  0  0  0  0  0  0  0  0  0
   22.4910   13.6700    8.2790 H   0  0  0  0  0  0  0  0  0  0  0  0
   21.5210   15.5720    9.2760 H   0  0  0  0  0  0  0  0  0  0  0  0
   17.1900   18.0700   10.7890 H   0  0  0  0  0  0  0  0  0  0  0  0
   23.3950   11.8210    7.2290 H   0  0  0  0  0  0  0  0  0  0  0  0
   21.4660   11.4980    7.3760 H   0  0  0  0  0  0  0  0  0  0  0  0
   22.4750   10.7100    5.9200 H   0  0  0  0  0  0  0  0  0  0  0  0
  2  1  2  0
  3  2  1  0
  5  4  1  0
  6  5  2  0
  7  6  1  0
  8  3  2  0
  8  6  1  0
  9  8  1  0
 10  1  1  0
 10  9  2  0
 11  3  1  0
 11  4  1  0
 15  7  1  0
 15 12  1  0
 15 13  1  0
 15 14  1  0
 16  1  1  0
 17  4  2  0
 18 16  1  0
 19  2  1  0
 20  5  1  0
 21  7  1  0
 22  7  1  0
 23 10  1  0
 24  9  1  0
 25 14  1  0
 26 18  1  0
 27 18  1  0
 28 18  1  0
M  CHG  2  12  -1  13  -1
M  END
>  <Favorite_cresset>
false

>  <MW_cresset>
269.2

>  <#Atoms_cresset>
18

>  <SlogP_cresset>
1.1

>  <TPSA_cresset>
101.9

>  <Flexibility_cresset>
3.5

>  <#RB_cresset>
4

>  <Rof5_cresset>
0

>  <Filename_cresset>
lig_h_2.mol2

>  <Confs_cresset>
0

>  <Poses_cresset>
0

>  <Activity (Primary)_cresset>
No Primary Activity Set

$$$$
