TWB
  xed2sdf           3D
 
 24 25  0  0  0  0  0  0  0  0999 V2000
   22.2150   14.0510    7.0130 C   0  0  0  0  0  0  0  0  0  0  0  0
   21.3000   14.6380    6.2120 C   0  0  0  0  0  0  0  0  0  0  0  0
   20.5850   15.7730    6.6500 C   0  0  0  0  0  0  0  0  0  0  0  0
   19.0340   17.3850    6.2110 C   0  0  0  0  0  0  0  0  0  0  0  0
   19.1940   17.9240    7.4790 C   0  0  0  0  0  0  0  0  0  0  0  0
   20.0800   17.3870    8.3530 C   0  0  0  0  0  0  0  0  0  0  0  0
   20.1880   18.0610    9.7130 C   0  0  0  0  0  0  0  0  0  0  0  0
   20.8220   16.2740    7.9430 C   0  0  0  0  0  0  0  0  0  0  0  0
   21.7890   15.6360    8.7550 C   0  0  0  0  0  0  0  0  0  0  0  0
   22.4670   14.5600    8.3000 C   0  0  0  0  0  0  0  0  0  0  0  0
   19.6970   16.3150    5.7700 N   0  0  0  0  0  0  0  0  0  0  0  0
   19.2850   18.0700   12.2660 O   0  5  0  0  0  0  0  0  0  0  0  0
   19.6080   15.8020   11.1380 O   0  5  0  0  0  0  0  0  0  0  0  0
   17.6620   17.2930   10.4850 O   0  0  0  0  0  0  0  0  0  0  0  0
   19.1820   17.2410   11.0090 P   0  0  0  0  0  0  0  0  0  0  0  0
   22.7180   13.2480    6.6900 H   0  0  0  0  0  0  0  0  0  0  0  0
   21.1250   14.2690    5.2990 H   0  0  0  0  0  0  0  0  0  0  0  0
   18.6480   18.7140    7.7530 H   0  0  0  0  0  0  0  0  0  0  0  0
   21.3300   18.0720   10.0810 H   0  0  0  0  0  0  0  0  0  0  0  0
   19.8160   19.1990    9.6530 H   0  0  0  0  0  0  0  0  0  0  0  0
   17.2180   18.1340   10.8040 H   0  0  0  0  0  0  0  0  0  0  0  0
   23.1500   14.1180    8.8830 H   0  0  0  0  0  0  0  0  0  0  0  0
   18.3720   17.8140    5.5960 H   0  0  0  0  0  0  0  0  0  0  0  0
   21.9730   15.9810    9.6750 H   0  0  0  0  0  0  0  0  0  0  0  0
  2  1  2  0
  3  2  1  0
  5  4  1  0
  6  5  2  0
  7  6  1  0
  8  3  2  0
  8  6  1  0
  9  8  1  0
 10  1  1  0
 10  9  2  0
 11  3  1  0
 11  4  2  0
 15  7  1  0
 15 12  1  0
 15 13  1  0
 15 14  1  0
 16  1  1  0
 17  2  1  0
 18  5  1  0
 19  7  1  0
 20  7  1  0
 21 14  1  0
 22 10  1  0
 23  4  1  0
 24  9  1  0
M  CHG  2  12  -1  13  -1
M  END
>  <Favorite_cresset>
false

>  <MW_cresset>
222.2

>  <#Atoms_cresset>
15

>  <SlogP_cresset>
1.9

>  <TPSA_cresset>
79.2

>  <Flexibility_cresset>
3

>  <#RB_cresset>
3

>  <Rof5_cresset>
0

>  <Filename_cresset>
lig_h_15.mol2

>  <Confs_cresset>
0

>  <Poses_cresset>
0

>  <Activity (Primary)_cresset>
No Primary Activity Set

$$$$
