vim2_solv.gromacs (1)
  xed2sdf           3D
 
 24 25  0  0  0  0  0  0  0  0999 V2000
   25.5560   27.1580   39.6280 C   0  0  0  0  0  0  0  0  0  0  0  0
   25.9020   28.5050   39.6470 C   0  0  0  0  0  0  0  0  0  0  0  0
   24.8920   29.4580   39.6720 C   0  0  0  0  0  0  0  0  0  0  0  0
   25.1300   30.8230   39.0280 C   0  0  0  0  0  0  0  0  0  0  0  0
   23.5840   29.0580   40.0080 C   0  0  0  0  0  0  0  0  0  0  0  0
   22.5720   29.9900   40.3130 C   0  0  0  0  0  0  0  0  0  0  0  0
   21.2960   29.5470   40.6390 C   0  0  0  0  0  0  0  0  0  0  0  0
   21.0170   28.1840   40.6660 C   0  0  0  0  0  0  0  0  0  0  0  0
   22.0130   27.2650   40.3660 C   0  0  0  0  0  0  0  0  0  0  0  0
   23.3070   27.7120   40.0350 C   0  0  0  0  0  0  0  0  0  0  0  0
   22.8400   31.3270   40.2880 F   0  0  0  0  0  0  0  0  0  0  0  0
   19.7630   27.7510   40.9860 F   0  0  0  0  0  0  0  0  0  0  0  0
   26.4000   26.3340   39.5080 O   0  0  0  0  0  0  0  0  0  0  0  0
   25.1400   32.1120   36.5880 O   0  5  0  0  0  0  0  0  0  0  0  0
   26.3060   29.9410   36.6920 O   0  5  0  0  0  0  0  0  0  0  0  0
   23.8420   30.0200   36.7240 O   0  0  0  0  0  0  0  0  0  0  0  0
   24.2680   26.7850   39.7450 O   0  0  0  0  0  0  0  0  0  0  0  0
   25.1030   30.7190   37.1700 P   0  0  0  0  0  0  0  0  0  0  0  0
   24.4160   31.4550   39.3300 H   0  0  0  0  0  0  0  0  0  0  0  0
   26.0200   31.1720   39.3220 H   0  0  0  0  0  0  0  0  0  0  0  0
   26.8630   28.7830   39.6430 H   0  0  0  0  0  0  0  0  0  0  0  0
   20.5770   30.2080   40.8540 H   0  0  0  0  0  0  0  0  0  0  0  0
   21.8120   26.2860   40.3850 H   0  0  0  0  0  0  0  0  0  0  0  0
   23.0310   30.5850   36.9110 H   0  0  0  0  0  0  0  0  0  0  0  0
  1  2  1  0
  1 13  2  0
  1 17  1  0
  2  3  2  0
  3  4  1  0
  3  5  1  0
  4 18  1  0
  5  6  2  0
  5 10  1  0
  6  7  1  0
  6 11  1  0
  7  8  2  0
  8  9  1  0
  8 12  1  0
  9 10  2  0
 10 17  1  0
 14 18  1  0
 15 18  1  0
 16 18  1  0
  2 21  1  0
  4 19  1  0
  4 20  1  0
  7 22  1  0
  9 23  1  0
 16 24  1  0
M  CHG  2  14  -1  15  -1
M  END
$$$$
