TWB
  xed2sdf           3D
 
 27 29  0  0  0  0  0  0  0  0999 V2000
   21.5330   14.0120    6.3830 C   0  0  0  0  0  0  0  0  0  0  0  0
   20.7040   14.7860    5.6210 C   0  0  0  0  0  0  0  0  0  0  0  0
   20.1450   15.9060    6.2190 C   0  0  0  0  0  0  0  0  0  0  0  0
   18.6700   17.6780    6.0620 C   0  0  0  0  0  0  0  0  0  0  0  0
   18.9590   18.1070    7.3940 C   0  0  0  0  0  0  0  0  0  0  0  0
   19.8270   17.4100    8.1510 C   0  0  0  0  0  0  0  0  0  0  0  0
   20.1100   17.9770    9.5270 C   0  0  0  0  0  0  0  0  0  0  0  0
   20.4460   16.2290    7.5550 C   0  0  0  0  0  0  0  0  0  0  0  0
   21.3040   15.4130    8.3100 C   0  0  0  0  0  0  0  0  0  0  0  0
   21.8210   14.3110    7.6890 C   0  0  0  0  0  0  0  0  0  0  0  0
   19.2820   16.6340    5.4550 O   0  0  0  0  0  0  0  0  0  0  0  0
   19.3120   17.9500   12.1300 O   0  5  0  0  0  0  0  0  0  0  0  0
   19.5520   15.7040   10.9340 O   0  5  0  0  0  0  0  0  0  0  0  0
   17.6240   17.2590   10.3800 O   0  0  0  0  0  0  0  0  0  0  0  0
   19.1560   17.1540   10.8570 P   0  0  0  0  0  0  0  0  0  0  0  0
   22.1240   12.8840    6.0330 O   0  0  0  0  0  0  0  0  0  0  0  0
   17.8100   18.3490    5.5030 O   0  0  0  0  0  0  0  0  0  0  0  0
   22.6060   13.3660    8.1990 O   0  0  0  0  0  0  0  0  0  0  0  0
   22.7410   12.2990    7.2130 C   0  0  0  0  0  0  0  0  0  0  0  0
   20.4920   14.5440    4.6730 H   0  0  0  0  0  0  0  0  0  0  0  0
   18.5030   18.9080    7.7500 H   0  0  0  0  0  0  0  0  0  0  0  0
   21.2850   17.9630    9.7690 H   0  0  0  0  0  0  0  0  0  0  0  0
   19.7360   19.1160    9.5820 H   0  0  0  0  0  0  0  0  0  0  0  0
   21.5140   15.6210    9.2660 H   0  0  0  0  0  0  0  0  0  0  0  0
   17.1950   18.0730   10.7810 H   0  0  0  0  0  0  0  0  0  0  0  0
   23.8690   11.9600    7.0230 H   0  0  0  0  0  0  0  0  0  0  0  0
   22.0650   11.3680    7.5510 H   0  0  0  0  0  0  0  0  0  0  0  0
  2  1  2  0
  3  2  1  0
  5  4  1  0
  6  5  2  0
  7  6  1  0
  8  3  2  0
  8  6  1  0
  9  8  1  0
 10  1  1  0
 10  9  2  0
 11  3  1  0
 11  4  1  0
 15  7  1  0
 15 12  1  0
 15 13  1  0
 15 14  1  0
 16  1  1  0
 17  4  2  0
 18 10  1  0
 18 19  1  0
 19 16  1  0
 20  2  1  0
 21  5  1  0
 22  7  1  0
 23  7  1  0
 24  9  1  0
 25 14  1  0
 26 19  1  0
 27 19  1  0
M  CHG  2  12  -1  13  -1
M  END
>  <Favorite_cresset>
false

>  <MW_cresset>
283.2

>  <#Atoms_cresset>
19

>  <SlogP_cresset>
0.8

>  <TPSA_cresset>
111.1

>  <Flexibility_cresset>
3.2

>  <#RB_cresset>
3

>  <Rof5_cresset>
0

>  <Filename_cresset>
lig_h_3.mol2

>  <Confs_cresset>
0

>  <Poses_cresset>
0

>  <Activity (Primary)_cresset>
No Primary Activity Set

$$$$
