TWB
  xed2sdf           3D
 
 27 28  0  0  0  0  0  0  0  0999 V2000
   21.5580   13.9840    6.4350 C   0  0  0  0  0  0  0  0  0  0  0  0
   20.7190   14.7740    5.6900 C   0  0  0  0  0  0  0  0  0  0  0  0
   20.1370   15.9160    6.2360 C   0  0  0  0  0  0  0  0  0  0  0  0
   18.6630   17.6920    6.0630 C   0  0  0  0  0  0  0  0  0  0  0  0
   18.9360   18.1340    7.3960 C   0  0  0  0  0  0  0  0  0  0  0  0
   19.8010   17.4420    8.1550 C   0  0  0  0  0  0  0  0  0  0  0  0
   20.0970   17.9960    9.5320 C   0  0  0  0  0  0  0  0  0  0  0  0
   20.4220   16.2560    7.5610 C   0  0  0  0  0  0  0  0  0  0  0  0
   21.2770   15.4480    8.3080 C   0  0  0  0  0  0  0  0  0  0  0  0
   21.8350   14.3340    7.7470 C   0  0  0  0  0  0  0  0  0  0  0  0
   19.2850   16.6460    5.4610 O   0  0  0  0  0  0  0  0  0  0  0  0
   19.3140   17.9490   12.1310 O   0  5  0  0  0  0  0  0  0  0  0  0
   19.5610   15.7060   10.9320 O   0  5  0  0  0  0  0  0  0  0  0  0
   17.6230   17.2520   10.3870 O   0  0  0  0  0  0  0  0  0  0  0  0
   19.1570   17.1540   10.8590 P   0  0  0  0  0  0  0  0  0  0  0  0
   22.1900   12.7090    5.8960 C   0  0  0  0  0  0  0  0  0  0  0  0
   17.8000   18.3650    5.5110 O   0  0  0  0  0  0  0  0  0  0  0  0
   20.5130   14.5190    4.7440 H   0  0  0  0  0  0  0  0  0  0  0  0
   18.4750   18.9390    7.7470 H   0  0  0  0  0  0  0  0  0  0  0  0
   21.2740   17.9800    9.7630 H   0  0  0  0  0  0  0  0  0  0  0  0
   19.7260   19.1350    9.5950 H   0  0  0  0  0  0  0  0  0  0  0  0
   21.4780   15.6770    9.2630 H   0  0  0  0  0  0  0  0  0  0  0  0
   17.1960   18.0720   10.7750 H   0  0  0  0  0  0  0  0  0  0  0  0
   22.4430   13.7560    8.2910 H   0  0  0  0  0  0  0  0  0  0  0  0
   23.3820   12.7480    6.0460 H   0  0  0  0  0  0  0  0  0  0  0  0
   21.9630   12.5400    4.7290 H   0  0  0  0  0  0  0  0  0  0  0  0
   21.7520   11.7670    6.5000 H   0  0  0  0  0  0  0  0  0  0  0  0
  2  1  2  0
  3  2  1  0
  5  4  1  0
  6  5  2  0
  7  6  1  0
  8  3  2  0
  8  6  1  0
  9  8  1  0
 10  1  1  0
 10  9  2  0
 11  3  1  0
 11  4  1  0
 15  7  1  0
 15 12  1  0
 15 13  1  0
 15 14  1  0
 16  1  1  0
 17  4  2  0
 18  2  1  0
 19  5  1  0
 20  7  1  0
 21  7  1  0
 22  9  1  0
 23 14  1  0
 24 10  1  0
 25 16  1  0
 26 16  1  0
 27 16  1  0
M  CHG  2  12  -1  13  -1
M  END
>  <Favorite_cresset>
false

>  <MW_cresset>
253.2

>  <#Atoms_cresset>
17

>  <SlogP_cresset>
1.4

>  <TPSA_cresset>
92.6

>  <Flexibility_cresset>
3

>  <#RB_cresset>
3

>  <Rof5_cresset>
0

>  <Filename_cresset>
lig_h_4.mol2

>  <Confs_cresset>
0

>  <Poses_cresset>
0

>  <Activity (Primary)_cresset>
No Primary Activity Set

$$$$
