TWB
  xed2sdf           3D
 
 25 26  0  0  0  0  0  0  0  0999 V2000
   21.5870   14.1170    6.2970 C   0  0  0  0  0  0  0  0  0  0  0  0
   20.6580   14.8610    5.6250 C   0  0  0  0  0  0  0  0  0  0  0  0
   20.0780   15.9680    6.2340 C   0  0  0  0  0  0  0  0  0  0  0  0
   18.5220   17.7940    6.0830 C   0  0  0  0  0  0  0  0  0  0  0  0
   18.8640   18.1870    7.4170 C   0  0  0  0  0  0  0  0  0  0  0  0
   19.7680   17.4830    8.1360 C   0  0  0  0  0  0  0  0  0  0  0  0
   20.0850   18.0300    9.5090 C   0  0  0  0  0  0  0  0  0  0  0  0
   20.4220   16.3110    7.5390 C   0  0  0  0  0  0  0  0  0  0  0  0
   21.3650   15.5340    8.2150 C   0  0  0  0  0  0  0  0  0  0  0  0
   21.9430   14.4590    7.5970 C   0  0  0  0  0  0  0  0  0  0  0  0
   19.1440   16.7290    5.5540 N   0  0  0  0  0  0  0  0  0  0  0  0
   19.3270   17.9690   12.1090 O   0  5  0  0  0  0  0  0  0  0  0  0
   19.6350   15.7330   10.9060 O   0  5  0  0  0  0  0  0  0  0  0  0
   17.6340   17.2140   10.3950 O   0  0  0  0  0  0  0  0  0  0  0  0
   19.1780   17.1660   10.8410 P   0  0  0  0  0  0  0  0  0  0  0  0
   17.6750   18.4620    5.5050 O   0  0  0  0  0  0  0  0  0  0  0  0
   22.0080   13.3250    5.8510 H   0  0  0  0  0  0  0  0  0  0  0  0
   20.3950   14.6130    4.6920 H   0  0  0  0  0  0  0  0  0  0  0  0
   18.4190   18.9820    7.8080 H   0  0  0  0  0  0  0  0  0  0  0  0
   21.2670   18.0100    9.7140 H   0  0  0  0  0  0  0  0  0  0  0  0
   19.7240   19.1700    9.5920 H   0  0  0  0  0  0  0  0  0  0  0  0
   21.6180   15.7620    9.1560 H   0  0  0  0  0  0  0  0  0  0  0  0
   17.2000   18.0470   10.7450 H   0  0  0  0  0  0  0  0  0  0  0  0
   22.6250   13.9120    8.0850 H   0  0  0  0  0  0  0  0  0  0  0  0
   18.9330   16.5000    4.7320 H   0  0  0  0  0  0  0  0  0  0  0  0
  2  1  2  0
  3  2  1  0
  5  4  1  0
  6  5  2  0
  7  6  1  0
  8  3  2  0
  8  6  1  0
  9  8  1  0
 10  1  1  0
 10  9  2  0
 11  3  1  0
 11  4  1  0
 15  7  1  0
 15 12  1  0
 15 13  1  0
 15 14  1  0
 16  4  2  0
 17  1  1  0
 18  2  1  0
 19  5  1  0
 20  7  1  0
 21  7  1  0
 22  9  1  0
 23 14  1  0
 24 10  1  0
 25 11  1  0
M  CHG  2  12  -1  13  -1
M  END
>  <Favorite_cresset>
false

>  <MW_cresset>
238.2

>  <#Atoms_cresset>
16

>  <SlogP_cresset>
1.1

>  <TPSA_cresset>
95.5

>  <Flexibility_cresset>
3

>  <#RB_cresset>
3

>  <Rof5_cresset>
0

>  <Filename_cresset>
lig_h_11.mol2

>  <Confs_cresset>
0

>  <Poses_cresset>
0

>  <Activity (Primary)_cresset>
No Primary Activity Set

$$$$
