TWB
  xed2sdf           3D
 
 31 32  0  0  0  0  0  0  0  0999 V2000
   22.2440   13.9720    6.9580 C   0  0  0  0  0  0  0  0  0  0  0  0
   21.2750   14.5810    6.2150 C   0  0  0  0  0  0  0  0  0  0  0  0
   20.6070   15.7020    6.6940 C   0  0  0  0  0  0  0  0  0  0  0  0
   18.9420   17.3800    6.2640 C   0  0  0  0  0  0  0  0  0  0  0  0
   19.1630   17.9200    7.5680 C   0  0  0  0  0  0  0  0  0  0  0  0
   20.0750   17.3730    8.4060 C   0  0  0  0  0  0  0  0  0  0  0  0
   20.0880   18.1180    9.7250 C   0  0  0  0  0  0  0  0  0  0  0  0
   20.8930   16.2260    7.9580 C   0  0  0  0  0  0  0  0  0  0  0  0
   21.9290   15.6140    8.6870 C   0  0  0  0  0  0  0  0  0  0  0  0
   22.5740   14.5120    8.1910 C   0  0  0  0  0  0  0  0  0  0  0  0
   19.6430   16.3000    5.9000 N   0  0  0  0  0  0  0  0  0  0  0  0
   19.2440   18.0710   12.2910 O   0  5  0  0  0  0  0  0  0  0  0  0
   19.5569   15.8180   11.1280 O   0  5  0  0  0  0  0  0  0  0  0  0
   17.6030   17.2970   10.5180 O   0  0  0  0  0  0  0  0  0  0  0  0
   19.1290   17.2560   11.0270 P   0  0  0  0  0  0  0  0  0  0  0  0
   22.9460   12.7330    6.4230 C   0  0  0  0  0  0  0  0  0  0  0  0
   18.1060   17.9350    5.5610 O   0  0  0  0  0  0  0  0  0  0  0  0
   22.4440   16.0990   10.0330 C   0  0  0  0  0  0  0  0  0  0  0  0
   21.0410   14.2130    5.3160 H   0  0  0  0  0  0  0  0  0  0  0  0
   18.6130   18.6920    7.8490 H   0  0  0  0  0  0  0  0  0  0  0  0
   21.1990   18.3850   10.0780 H   0  0  0  0  0  0  0  0  0  0  0  0
   19.5210   19.1730    9.6480 H   0  0  0  0  0  0  0  0  0  0  0  0
   17.1680   18.1530   10.8060 H   0  0  0  0  0  0  0  0  0  0  0  0
   23.2990   14.0820    8.7270 H   0  0  0  0  0  0  0  0  0  0  0  0
   19.4700   15.9560    5.1090 H   0  0  0  0  0  0  0  0  0  0  0  0
   23.9810   13.0440    5.8990 H   0  0  0  0  0  0  0  0  0  0  0  0
   22.2490   12.1800    5.6140 H   0  0  0  0  0  0  0  0  0  0  0  0
   23.1730   11.9550    7.3100 H   0  0  0  0  0  0  0  0  0  0  0  0
   22.9740   17.1580    9.8590 H   0  0  0  0  0  0  0  0  0  0  0  0
   23.2730   15.3700   10.5060 H   0  0  0  0  0  0  0  0  0  0  0  0
   21.5610   16.1960   10.8330 H   0  0  0  0  0  0  0  0  0  0  0  0
  2  1  2  0
  3  2  1  0
  5  4  1  0
  6  5  2  0
  7  6  1  0
  8  3  2  0
  8  6  1  0
  9  8  1  0
 10  1  1  0
 10  9  2  0
 11  3  1  0
 11  4  1  0
 15  7  1  0
 15 12  1  0
 15 13  1  0
 15 14  1  0
 16  1  1  0
 17  4  2  0
 18  9  1  0
 19  2  1  0
 20  5  1  0
 21  7  1  0
 22  7  1  0
 23 14  1  0
 24 10  1  0
 25 11  1  0
 26 16  1  0
 27 16  1  0
 28 16  1  0
 29 18  1  0
 30 18  1  0
 31 18  1  0
M  CHG  2  12  -1  13  -1
M  END
>  <Favorite_cresset>
false

>  <MW_cresset>
266.2

>  <#Atoms_cresset>
18

>  <SlogP_cresset>
1.7

>  <TPSA_cresset>
95.4

>  <Flexibility_cresset>
3

>  <#RB_cresset>
3

>  <Rof5_cresset>
0

>  <Filename_cresset>
lig_h_13.mol2

>  <Confs_cresset>
0

>  <Poses_cresset>
0

>  <Activity (Primary)_cresset>
No Primary Activity Set

$$$$
