@<TRIPOS>MOLECULE
HD2
   17    17     1     0     0
SMALL
RESP Charge
 
 
@<TRIPOS>ATOM
      1 N         -35.0470    6.1460   -3.7850 N         1 HD2     -0.415700
      2 H         -34.1960    6.0380   -3.8490 H         1 HD2      0.308457
      3 CA        -35.5420    6.3260   -2.4290 CX        1 HD2      0.018800
      4 HA        -36.1680    5.6200   -2.2040 H1        1 HD2      0.079606
      5 CB        -34.3530    6.2650   -1.4730 CT        1 HD2      0.179883
      6 HB2       -34.0490    5.3460   -1.4090 HC        1 HD2     -0.011910
      7 HB3       -33.6220    6.7800   -1.8490 HC        1 HD2     -0.011910
      8 CG        -34.6440    6.7730   -0.1000 CC        1 HD2     -0.016367
      9 ND1       -35.1840    5.9760    0.8890 NA        1 HD2     -0.265565
     10 HD1       -35.3950    5.1470    0.8010 H         1 HD2      0.377568
     11 CE1       -35.3260    6.6890    1.9930 CR        1 HD2      0.157149
     12 HE1       -35.6690    6.3800    2.8000 H5        1 HD2      0.164467
     13 NE2       -34.8960    7.9180    1.7540 Y3        1 HD2     -0.454187
     14 CD2       -34.4660    7.9950    0.4520 CV        1 HD2      0.070166
     15 HD2       -34.1180    8.7460    0.0290 H4        1 HD2      0.090541
     16 C         -36.3020    7.6410   -2.3020 C         1 HD2      0.597300
     17 O         -37.3000    7.7270   -1.5760 O         1 HD2     -0.567900
@<TRIPOS>BOND
     1    1    2 1
     2    1    3 1
     3    3    4 1
     4    3    5 1
     5    3   16 1
     6    5    6 1
     7    5    7 1
     8    5    8 1
     9    8    9 1
    10    8   14 1
    11    9   10 1
    12    9   11 1
    13   11   12 1
    14   11   13 1
    15   13   14 1
    16   14   15 1
    17   16   17 1
@<TRIPOS>SUBSTRUCTURE
     1 HD2         1 TEMP              0 ****  ****    0 ROOT
