@<TRIPOS>MOLECULE
HE1
   17    17     1     0     0
SMALL
RESP Charge
 
 
@<TRIPOS>ATOM
      1 N         -34.3110   14.4610    3.3240 N         1 HE1     -0.415700
      2 H         -33.9600   13.8760    2.8000 H         1 HE1      0.391409
      3 CA        -34.8370   13.9190    4.5680 CX        1 HE1     -0.058100
      4 HA        -35.6990   14.3370    4.7220 H1        1 HE1     -0.013870
      5 CB        -35.0340   12.4000    4.4670 CT        1 HE1      1.760542
      6 HB2       -34.2380   12.0030    4.0800 HC        1 HE1     -0.480689
      7 HB3       -35.1280   12.0340    5.3600 HC        1 HE1     -0.480689
      8 CG        -36.2230   12.0030    3.6500 CC        1 HE1     -0.637221
      9 ND1       -36.3870   10.7360    3.1360 Y2        1 HE1     -0.006625
     10 CE1       -37.5250   10.6820    2.4670 CR        1 HE1     -0.178242
     11 HE1       -37.8590    9.9370    2.0220 H5        1 HE1      0.214195
     12 NE2       -38.1080   11.8640    2.5360 NA        1 HE1      0.193374
     13 HE2       -38.8620   12.0710    2.1770 H         1 HE1      0.245092
     14 CD2       -37.3160   12.7080    3.2730 CW        1 HE1     -0.261538
     15 HD2       -37.4960   13.5980    3.4760 H4        1 HE1      0.193512
     16 C         -33.9210   14.2460    5.7490 C         1 HE1      0.597300
     17 O         -32.7560   14.6220    5.5990 O         1 HE1     -0.567900
@<TRIPOS>BOND
     1    1    2 1
     2    1    3 1
     3    3    4 1
     4    3    5 1
     5    3   16 1
     6    5    6 1
     7    5    7 1
     8    5    8 1
     9    8    9 1
    10    8   14 1
    11    9   10 1
    12   10   11 1
    13   10   12 1
    14   12   13 1
    15   12   14 1
    16   14   15 1
    17   16   17 1
@<TRIPOS>SUBSTRUCTURE
     1 HE1         1 TEMP              0 ****  ****    0 ROOT
