@<TRIPOS>MOLECULE
PT1
   24    25     1     0     0
SMALL
RESP Charge
 
 
@<TRIPOS>ATOM
      1 C02       -34.2200    3.3930    8.0830 c         1 PT1      0.858425
      2 C03       -33.8740    4.7400    8.1020 cc        1 PT1     -0.533338
      3 C04       -34.8840    5.6930    8.1270 cd        1 PT1      0.381723
      4 C05       -34.6460    7.0580    7.4830 c3        1 PT1     -0.474230
      5 C10       -36.1920    5.2930    8.4630 ca        1 PT1     -0.387357
      6 C11       -37.2040    6.2250    8.7680 ca        1 PT1      0.338468
      7 C13       -38.4800    5.7820    9.0940 ca        1 PT1     -0.408298
      8 C14       -38.7590    4.4190    9.1210 ca        1 PT1      0.381952
      9 C16       -37.7630    3.5000    8.8210 ca        1 PT1     -0.429650
     10 C17       -36.4690    3.9470    8.4900 ca        1 PT1      0.466456
     11 F12       -36.9360    7.5620    8.7430 f         1 PT1     -0.133768
     12 F15       -40.0130    3.9860    9.4410 f         1 PT1     -0.133829
     13 O01       -33.3760    2.5690    7.9630 o         1 PT1     -0.534142
     14 O07       -34.6360    8.3470    5.0430 Y4        1 PT1     -0.870591
     15 O08       -33.4700    6.1760    5.1470 Y8        1 PT1     -0.685167
     16 O09       -35.9340    6.2550    5.1790 oh        1 PT1     -0.560623
     17 O18       -35.5080    3.0200    8.2000 os        1 PT1     -0.398676
     18 P06       -34.6730    6.9540    5.6250 p5        1 PT1      1.180355
     19 H052      -35.3600    7.6900    7.7850 hc        1 PT1      0.138277
     20 H053      -33.7560    7.4070    7.7770 hc        1 PT1      0.138277
     21 H03       -32.9130    5.0180    8.0980 ha        1 PT1      0.175563
     22 H13       -39.1990    6.4430    9.3090 ha        1 PT1      0.212082
     23 H16       -37.9640    2.5210    8.8400 ha        1 PT1      0.236571
     24 H1        -36.7450    6.8200    5.3660 ho        1 PT1      0.416714
@<TRIPOS>BOND
     1    1    2 1
     2    1   13 1
     3    1   17 1
     4    2    3 1
     5    2   21 1
     6    3    4 1
     7    3    5 1
     8    4   18 1
     9    4   19 1
    10    4   20 1
    11    5    6 1
    12    5   10 1
    13    6    7 1
    14    6   11 1
    15    7    8 1
    16    7   22 1
    17    8    9 1
    18    8   12 1
    19    9   10 1
    20    9   23 1
    21   10   17 1
    22   14   18 1
    23   15   18 1
    24   16   18 1
    25   16   24 1
@<TRIPOS>SUBSTRUCTURE
     1 PT1         1 TEMP              0 ****  ****    0 ROOT
