@<TRIPOS>MOLECULE
AP1
   12    11     1     0     0
SMALL
RESP Charge
 
 
@<TRIPOS>ATOM
      1 N         -32.3980   12.5030    7.9910 N         1 AP1     -0.516300
      2 H         -32.9790   12.0630    7.5340 H         1 AP1      0.329949
      3 CA        -31.1320   11.8270    8.2630 CX        1 AP1      0.038100
      4 HA        -30.8750   12.0650    9.1680 H1        1 AP1      0.088850
      5 CB        -31.2960   10.2940    8.1970 2C        1 AP1      1.533763
      6 HB2       -30.4600    9.8770    8.4590 HC        1 AP1     -0.430719
      7 HB3       -31.9640   10.0210    8.8450 HC        1 AP1     -0.430719
      8 CG        -31.7000    9.7710    6.8180 CO        1 AP1      0.486018
      9 OD1       -32.1860   10.5450    5.9630 O2        1 AP1     -0.551499
     10 OD2       -31.5630    8.5370    6.6170 Y5        1 AP1     -0.870420
     11 C         -30.0060   12.3040    7.3530 C         1 AP1      0.536600
     12 O         -28.8620   11.8590    7.5100 O         1 AP1     -0.581900
@<TRIPOS>BOND
     1    1    2 1
     2    1    3 1
     3    3    4 1
     4    3    5 1
     5    3   11 1
     6    5    6 1
     7    5    7 1
     8    5    8 1
     9    8    9 1
    10    8   10 1
    11   11   12 1
@<TRIPOS>SUBSTRUCTURE
     1 AP1         1 TEMP              0 ****  ****    0 ROOT
