ligand_2
  xed2sdf           3D
 
 29 30  0  0  0  0  0  0  0  0999 V2000
   22.1572   13.0092    5.7731 O   0  0  0  0  0  0  0  0  0  0  0  0
   21.6591   14.1121    6.3420 C   0  0  0  0  0  0  0  0  0  0  0  0
   20.7989   14.9549    5.6719 C   0  0  0  0  0  0  0  0  0  0  0  0
   20.2999   16.1039    6.3161 C   0  0  0  0  0  0  0  0  0  0  0  0
   18.8319   17.9019    6.1689 C   0  0  0  0  0  0  0  0  0  0  0  0
   19.1059   18.1960    7.4761 C   0  0  0  0  0  0  0  0  0  0  0  0
   20.0539   17.5201    8.2053 C   0  0  0  0  0  0  0  0  0  0  0  0
   20.2321   17.8399    9.7022 C   0  0  0  0  0  0  0  0  0  0  0  0
   20.6100   16.3499    7.5861 C   0  0  0  0  0  0  0  0  0  0  0  0
   21.4759   15.4720    8.2770 C   0  0  0  0  0  0  0  0  0  0  0  0
   21.9981   14.3711    7.6339 C   0  0  0  0  0  0  0  0  0  0  0  0
   19.4319   16.8780    5.5869 O   0  0  0  0  0  0  0  0  0  0  0  0
   18.0860   18.5101    5.5472 O   0  0  0  0  0  0  0  0  0  0  0  0
   19.1801   17.1949   12.0481 O   0  0  0  0  0  0  0  0  0  0  0  0
   19.3270   15.3741   10.4920 O   0  0  0  0  0  0  0  0  0  0  0  0
   17.5830   17.2031   10.2269 O   0  0  0  0  0  0  0  0  0  0  0  0
   18.9950   16.8722   10.7399 P   0  0  0  0  0  0  0  0  0  0  0  0
   21.1611   17.5978    9.9830 H   0  0  0  0  0  0  0  0  0  0  0  0
   20.0919   18.8191    9.8501 H   0  0  0  0  0  0  0  0  0  0  0  0
   20.5301   14.7511    4.7309 H   0  0  0  0  0  0  0  0  0  0  0  0
   18.5959   18.9330    7.9190 H   0  0  0  0  0  0  0  0  0  0  0  0
   21.7100   15.6499    9.2330 H   0  0  0  0  0  0  0  0  0  0  0  0
   20.2210   15.1334   10.8854 H   0  0  0  0  0  0  0  0  0  0  0  0
   17.3351   18.1539   10.4427 H   0  0  0  0  0  0  0  0  0  0  0  0
   21.7886   12.6901    4.4144 C   0  0  0  0  0  0  0  0  0  0  0  0
   22.6149   13.7535    8.1219 H   0  0  0  0  0  0  0  0  0  0  0  0
   20.5998   12.5408    4.3369 H   0  0  0  0  0  0  0  0  0  0  0  0
   22.1385   13.5727    3.6795 H   0  0  0  0  0  0  0  0  0  0  0  0
   22.3287   11.6708    4.0827 H   0  0  0  0  0  0  0  0  0  0  0  0
  1  2  1  0
  1 25  1  0
  2  3  2  0
  2 11  1  0
  3  4  1  0
  4  9  2  0
  4 12  1  0
  5  6  1  0
  5 12  1  0
  5 13  2  0
  6  7  2  0
  7  8  1  0
  7  9  1  0
  8 17  1  0
  9 10  1  0
 10 11  2  0
 14 17  2  0
 15 17  1  0
 16 17  1  0
  3 20  1  0
  6 21  1  0
  8 18  1  0
  8 19  1  0
 10 22  1  0
 11 26  1  0
 15 23  1  0
 16 24  1  0
 25 27  1  0
 25 28  1  0
 25 29  1  0
M  END
>  <Favorite_cresset>
false

>  <Protein_cresset>
6D15_P

>  <MW_cresset>
270.2

>  <#Atoms_cresset>
18

>  <SlogP_cresset>
1.1

>  <TPSA_cresset>
93.1

>  <Flexibility_cresset>
4.5

>  <#RB_cresset>
5

>  <Rof5_cresset>
0

>  <Confs_cresset>
0

>  <Poses_cresset>
0

>  <Activity (Primary)_cresset>
No Primary Activity Set

>  <_cresset_fieldpoints2>
 2
    -5      23.385998      11.477323       6.638885     -4.5212
    -5      16.824947      15.675699       9.356582    -12.8817
    -5      18.023003      14.502659       9.394133    -13.1962
    -5      17.587124      18.227722       3.825646    -14.8927
    -5      16.907446      19.887396       5.550675    -14.3726
    -5      19.285461      17.550518      13.926220     -8.0178
    -6      21.991579      15.793278      11.192783     12.7786
    -6      20.065617      14.303461       2.751020      4.1241
    -6      18.112543      19.840702       9.978794     11.7984
    -7      17.363689      15.769375       8.051476     -2.8664
    -7      23.600662      17.071735       5.997847     -1.8890
    -7      18.135693      14.488705       8.485271     -2.7051
    -7      19.735573      14.486314       2.474308     -1.3960
    -7      21.793156      19.238209       6.408793     -2.0267
    -7      17.731565      15.816327       4.217418     -1.6143
    -7      22.229891      15.850119      11.620076     -2.0236
    -7      17.930779      20.261806       9.998533     -1.7144
    -7      23.947941      15.521273       4.511801     -1.6896
    -8      20.697163      16.771122       8.625675      5.5227
    -8      20.058455      17.393608       8.313217      5.4409
    -8      19.908964      17.174879       7.479537      5.4520
    -8      21.144852      15.244041       7.008357      6.9469
    -8      21.512440      12.610310       3.632954      2.5021

$$$$
