ligand_1
  xed2sdf           3D
 
 31 32  0  0  0  0  0  0  0  0999 V2000
   22.1750   12.8680    5.6220 C   0  0  0  0  0  0  0  0  0  0  0  0
   21.6590   14.1121    6.3420 C   0  0  0  0  0  0  0  0  0  0  0  0
   20.7989   14.9551    5.6719 C   0  0  0  0  0  0  0  0  0  0  0  0
   20.3000   16.1041    6.3160 C   0  0  0  0  0  0  0  0  0  0  0  0
   18.8320   17.9018    6.1689 C   0  0  0  0  0  0  0  0  0  0  0  0
   19.1059   18.1961    7.4760 C   0  0  0  0  0  0  0  0  0  0  0  0
   20.0540   17.5200    8.2051 C   0  0  0  0  0  0  0  0  0  0  0  0
   20.2320   17.8399    9.7020 C   0  0  0  0  0  0  0  0  0  0  0  0
   20.6099   16.3501    7.5859 C   0  0  0  0  0  0  0  0  0  0  0  0
   21.4760   15.4720    8.2769 C   0  0  0  0  0  0  0  0  0  0  0  0
   21.9980   14.3711    7.6339 C   0  0  0  0  0  0  0  0  0  0  0  0
   22.9550   13.4409    8.3761 C   0  0  0  0  0  0  0  0  0  0  0  0
   19.4321   16.8780    5.5870 O   0  0  0  0  0  0  0  0  0  0  0  0
   18.0860   18.5100    5.5471 O   0  0  0  0  0  0  0  0  0  0  0  0
   19.1800   17.1950   12.0480 O   0  0  0  0  0  0  0  0  0  0  0  0
   19.3270   15.3741   10.4919 O   0  0  0  0  0  0  0  0  0  0  0  0
   17.5829   17.2030   10.2270 O   0  0  0  0  0  0  0  0  0  0  0  0
   18.9951   16.8720   10.7400 P   0  0  0  0  0  0  0  0  0  0  0  0
   21.6570   12.7281    4.7780 H   0  0  0  0  0  0  0  0  0  0  0  0
   22.5710   12.5178    8.4091 H   0  0  0  0  0  0  0  0  0  0  0  0
   23.1420   12.9861    5.3950 H   0  0  0  0  0  0  0  0  0  0  0  0
   22.0641   12.0748    6.2221 H   0  0  0  0  0  0  0  0  0  0  0  0
   21.1610   17.5979    9.9830 H   0  0  0  0  0  0  0  0  0  0  0  0
   20.0920   18.8190    9.8501 H   0  0  0  0  0  0  0  0  0  0  0  0
   23.8340   13.4100    7.9000 H   0  0  0  0  0  0  0  0  0  0  0  0
   23.0880   13.7850    9.3060 H   0  0  0  0  0  0  0  0  0  0  0  0
   20.5301   14.7510    4.7310 H   0  0  0  0  0  0  0  0  0  0  0  0
   18.5959   18.9330    7.9190 H   0  0  0  0  0  0  0  0  0  0  0  0
   21.7101   15.6499    9.2329 H   0  0  0  0  0  0  0  0  0  0  0  0
   20.2209   15.1333   10.8855 H   0  0  0  0  0  0  0  0  0  0  0  0
   17.3351   18.1539   10.4426 H   0  0  0  0  0  0  0  0  0  0  0  0
  1  2  1  0
  2  3  2  0
  2 11  1  0
  3  4  1  0
  4  9  2  0
  4 13  1  0
  5  6  1  0
  5 13  1  0
  5 14  2  0
  6  7  2  0
  7  8  1  0
  7  9  1  0
  8 18  1  0
  9 10  1  0
 10 11  2  0
 11 12  1  0
 15 18  2  0
 16 18  1  0
 17 18  1  0
  1 19  1  0
  1 21  1  0
  1 22  1  0
  3 27  1  0
  6 28  1  0
  8 23  1  0
  8 24  1  0
 10 29  1  0
 12 20  1  0
 12 25  1  0
 12 26  1  0
 16 30  1  0
 17 31  1  0
M  END
>  <Favorite_cresset>
false

>  <Protein_cresset>
6D15_P

>  <MW_cresset>
268.2

>  <#Atoms_cresset>
18

>  <SlogP_cresset>
1.7

>  <TPSA_cresset>
83.8

>  <Flexibility_cresset>
4

>  <#RB_cresset>
4

>  <Rof5_cresset>
0

>  <Confs_cresset>
0

>  <Poses_cresset>
0

>  <Activity (Primary)_cresset>
No Primary Activity Set

$$$$
