ligand_13
  xed2sdf           3D
 
 32 33  0  0  0  0  0  0  0  0999 V2000
   22.1750   12.8681    5.6221 C   0  0  0  0  0  0  0  0  0  0  0  0
   21.6589   14.1122    6.3419 C   0  0  0  0  0  0  0  0  0  0  0  0
   20.7990   14.9551    5.6717 C   0  0  0  0  0  0  0  0  0  0  0  0
   20.3001   16.1041    6.3160 C   0  0  0  0  0  0  0  0  0  0  0  0
   18.8320   17.9018    6.1689 C   0  0  0  0  0  0  0  0  0  0  0  0
   19.1059   18.1961    7.4759 C   0  0  0  0  0  0  0  0  0  0  0  0
   20.0540   17.5201    8.2051 C   0  0  0  0  0  0  0  0  0  0  0  0
   20.2321   17.8399    9.7020 C   0  0  0  0  0  0  0  0  0  0  0  0
   20.6100   16.3500    7.5860 C   0  0  0  0  0  0  0  0  0  0  0  0
   21.4759   15.4721    8.2769 C   0  0  0  0  0  0  0  0  0  0  0  0
   21.9981   14.3711    7.6340 C   0  0  0  0  0  0  0  0  0  0  0  0
   19.4321   16.8779    5.5871 N   0  0  0  0  0  0  0  0  0  0  0  0
   18.0858   18.5099    5.5471 O   0  0  0  0  0  0  0  0  0  0  0  0
   19.1801   17.1949   12.0480 O   0  0  0  0  0  0  0  0  0  0  0  0
   19.3271   15.3741   10.4920 O   0  0  0  0  0  0  0  0  0  0  0  0
   17.5829   17.2030   10.2270 O   0  0  0  0  0  0  0  0  0  0  0  0
   18.9950   16.8721   10.7398 P   0  0  0  0  0  0  0  0  0  0  0  0
   21.6570   12.7281    4.7781 H   0  0  0  0  0  0  0  0  0  0  0  0
   23.1421   12.9860    5.3950 H   0  0  0  0  0  0  0  0  0  0  0  0
   22.0642   12.0748    6.2222 H   0  0  0  0  0  0  0  0  0  0  0  0
   21.1610   17.5979    9.9828 H   0  0  0  0  0  0  0  0  0  0  0  0
   20.0920   18.8190    9.8501 H   0  0  0  0  0  0  0  0  0  0  0  0
   20.5301   14.7511    4.7309 H   0  0  0  0  0  0  0  0  0  0  0  0
   18.5960   18.9330    7.9191 H   0  0  0  0  0  0  0  0  0  0  0  0
   22.1807   15.5057    9.6444 C   0  0  0  0  0  0  0  0  0  0  0  0
   20.2209   15.1333   10.8855 H   0  0  0  0  0  0  0  0  0  0  0  0
   17.3351   18.1540   10.4428 H   0  0  0  0  0  0  0  0  0  0  0  0
   22.6187   13.7473    8.1115 H   0  0  0  0  0  0  0  0  0  0  0  0
   19.2616   16.6862    4.7434 H   0  0  0  0  0  0  0  0  0  0  0  0
   23.1687   16.1640    9.4713 H   0  0  0  0  0  0  0  0  0  0  0  0
   22.5493   14.4172    9.9940 H   0  0  0  0  0  0  0  0  0  0  0  0
   21.6890   15.9259   10.6458 H   0  0  0  0  0  0  0  0  0  0  0  0
  1  2  1  0
  2  3  2  0
  2 11  1  0
  3  4  1  0
  4  9  2  0
  4 12  1  0
  5  6  1  0
  5 12  1  0
  5 13  2  0
  6  7  2  0
  7  8  1  0
  7  9  1  0
  8 17  1  0
  9 10  1  0
 10 11  2  0
 10 25  1  0
 14 17  2  0
 15 17  1  0
 16 17  1  0
  1 18  1  0
  1 19  1  0
  1 20  1  0
  3 23  1  0
  6 24  1  0
  8 21  1  0
  8 22  1  0
 11 28  1  0
 12 29  1  0
 15 26  1  0
 16 27  1  0
 25 30  1  0
 25 31  1  0
 25 32  1  0
M  END
>  <Favorite_cresset>
false

>  <Protein_cresset>
6D15_P

>  <MW_cresset>
267.2

>  <#Atoms_cresset>
18

>  <SlogP_cresset>
1.7

>  <TPSA_cresset>
86.6

>  <Flexibility_cresset>
4

>  <#RB_cresset>
4

>  <Rof5_cresset>
0

>  <Confs_cresset>
0

>  <Poses_cresset>
0

>  <Activity (Primary)_cresset>
No Primary Activity Set

>  <_cresset_fieldpoints2>
 2
    -5      23.591385      16.533283       6.028433     -2.4503
    -5      16.930359      19.881916       5.600834    -15.7445
    -5      18.337410      14.516935       9.095272    -14.3642
    -5      16.922548      15.725727       9.203884    -13.5681
    -5      19.271759      17.562832      13.924532     -8.1298
    -6      19.447674      15.659227       3.138439      7.9185
    -6      23.910824      12.659527       9.332378      3.7290
    -6      21.397961      14.459927      12.236866      8.4901
    -6      18.109783      19.850782      10.011748     11.3228
    -6      22.801287      17.865082      11.382360      4.9729
    -7      17.389523      15.748669       8.038212     -2.9804
    -7      18.382996      14.214771       8.592545     -2.8740
    -7      17.931055      20.260262       9.996915     -1.7200
    -7      23.038109      18.513023       8.051113     -2.3455
    -7      21.700100      17.484119      12.678144     -1.8102
    -7      21.775726      19.171549       6.292568     -2.1515
    -7      21.002140      15.579688      13.051230     -1.7028
    -7      23.706619      17.127781       6.438287     -2.1610
    -8      21.161213      15.212097       6.991362      7.1297
    -8      20.827496      16.686409       8.713131      5.6590
    -8      19.894615      17.176338       7.424106      5.5293
    -8      20.061600      17.389793       8.315227      5.4728

$$$$
