ligand_11
  xed2sdf           3D
 
 26 27  0  0  0  0  0  0  0  0999 V2000
   21.6590   14.1120    6.3419 C   0  0  0  0  0  0  0  0  0  0  0  0
   20.7990   14.9550    5.6719 C   0  0  0  0  0  0  0  0  0  0  0  0
   20.3000   16.1040    6.3160 C   0  0  0  0  0  0  0  0  0  0  0  0
   18.8319   17.9018    6.1689 C   0  0  0  0  0  0  0  0  0  0  0  0
   19.1059   18.1961    7.4760 C   0  0  0  0  0  0  0  0  0  0  0  0
   20.0540   17.5200    8.2051 C   0  0  0  0  0  0  0  0  0  0  0  0
   20.2319   17.8400    9.7020 C   0  0  0  0  0  0  0  0  0  0  0  0
   20.6099   16.3501    7.5859 C   0  0  0  0  0  0  0  0  0  0  0  0
   21.4760   15.4720    8.2769 C   0  0  0  0  0  0  0  0  0  0  0  0
   21.9981   14.3710    7.6339 C   0  0  0  0  0  0  0  0  0  0  0  0
   19.4321   16.8780    5.5870 N   0  0  0  0  0  0  0  0  0  0  0  0
   18.0860   18.5100    5.5471 O   0  0  0  0  0  0  0  0  0  0  0  0
   19.1800   17.1950   12.0480 O   0  0  0  0  0  0  0  0  0  0  0  0
   19.3269   15.3741   10.4919 O   0  0  0  0  0  0  0  0  0  0  0  0
   17.5829   17.2030   10.2270 O   0  0  0  0  0  0  0  0  0  0  0  0
   18.9951   16.8720   10.7400 P   0  0  0  0  0  0  0  0  0  0  0  0
   21.1610   17.5979    9.9830 H   0  0  0  0  0  0  0  0  0  0  0  0
   20.0920   18.8190    9.8501 H   0  0  0  0  0  0  0  0  0  0  0  0
   20.5301   14.7510    4.7310 H   0  0  0  0  0  0  0  0  0  0  0  0
   18.5959   18.9330    7.9190 H   0  0  0  0  0  0  0  0  0  0  0  0
   21.7101   15.6500    9.2330 H   0  0  0  0  0  0  0  0  0  0  0  0
   20.2210   15.1333   10.8855 H   0  0  0  0  0  0  0  0  0  0  0  0
   17.3351   18.1539   10.4426 H   0  0  0  0  0  0  0  0  0  0  0  0
   22.0262   13.3038    5.8818 H   0  0  0  0  0  0  0  0  0  0  0  0
   22.6175   13.7552    8.1206 H   0  0  0  0  0  0  0  0  0  0  0  0
   19.2616   16.6863    4.7434 H   0  0  0  0  0  0  0  0  0  0  0  0
  1  2  2  0
  1 10  1  0
  2  3  1  0
  3  8  2  0
  3 11  1  0
  4  5  1  0
  4 11  1  0
  4 12  2  0
  5  6  2  0
  6  7  1  0
  6  8  1  0
  7 16  1  0
  8  9  1  0
  9 10  2  0
 13 16  2  0
 14 16  1  0
 15 16  1  0
  1 24  1  0
  2 19  1  0
  5 20  1  0
  7 17  1  0
  7 18  1  0
  9 21  1  0
 10 25  1  0
 11 26  1  0
 14 22  1  0
 15 23  1  0
M  END
>  <Favorite_cresset>
false

>  <Protein_cresset>
6D15_P

>  <MW_cresset>
239.2

>  <#Atoms_cresset>
16

>  <SlogP_cresset>
1.1

>  <TPSA_cresset>
86.6

>  <Flexibility_cresset>
4

>  <#RB_cresset>
4

>  <Rof5_cresset>
0

>  <Confs_cresset>
0

>  <Poses_cresset>
0

>  <Activity (Primary)_cresset>
No Primary Activity Set

$$$$
