ligand_9
  xed2sdf           3D
 
 28 29  0  0  0  0  0  0  0  0999 V2000
   22.1750   12.8680    5.6221 C   0  0  0  0  0  0  0  0  0  0  0  0
   21.6590   14.1121    6.3420 C   0  0  0  0  0  0  0  0  0  0  0  0
   20.7990   14.9551    5.6717 C   0  0  0  0  0  0  0  0  0  0  0  0
   20.2999   16.1041    6.3161 C   0  0  0  0  0  0  0  0  0  0  0  0
   18.8321   17.9018    6.1690 C   0  0  0  0  0  0  0  0  0  0  0  0
   19.1060   18.1961    7.4759 C   0  0  0  0  0  0  0  0  0  0  0  0
   20.0541   17.5200    8.2050 C   0  0  0  0  0  0  0  0  0  0  0  0
   20.2320   17.8399    9.7019 C   0  0  0  0  0  0  0  0  0  0  0  0
   20.6099   16.3499    7.5859 C   0  0  0  0  0  0  0  0  0  0  0  0
   21.4759   15.4720    8.2770 C   0  0  0  0  0  0  0  0  0  0  0  0
   21.9979   14.3711    7.6339 C   0  0  0  0  0  0  0  0  0  0  0  0
   19.4321   16.8781    5.5869 O   0  0  0  0  0  0  0  0  0  0  0  0
   18.0859   18.5100    5.5471 O   0  0  0  0  0  0  0  0  0  0  0  0
   19.1800   17.1950   12.0480 O   0  0  0  0  0  0  0  0  0  0  0  0
   19.3270   15.3741   10.4919 O   0  0  0  0  0  0  0  0  0  0  0  0
   17.5830   17.2030   10.2270 O   0  0  0  0  0  0  0  0  0  0  0  0
   18.9951   16.8721   10.7400 P   0  0  0  0  0  0  0  0  0  0  0  0
   21.6571   12.7280    4.7779 H   0  0  0  0  0  0  0  0  0  0  0  0
   23.1420   12.9861    5.3950 H   0  0  0  0  0  0  0  0  0  0  0  0
   22.0641   12.0749    6.2221 H   0  0  0  0  0  0  0  0  0  0  0  0
   21.1609   17.5978    9.9829 H   0  0  0  0  0  0  0  0  0  0  0  0
   20.0921   18.8190    9.8500 H   0  0  0  0  0  0  0  0  0  0  0  0
   20.5300   14.7512    4.7310 H   0  0  0  0  0  0  0  0  0  0  0  0
   18.5959   18.9331    7.9190 H   0  0  0  0  0  0  0  0  0  0  0  0
   22.1177   15.7179   10.0318 Br  0  0  0  0  0  0  0  0  0  0  0  0
   20.2210   15.1333   10.8853 H   0  0  0  0  0  0  0  0  0  0  0  0
   17.3351   18.1539   10.4425 H   0  0  0  0  0  0  0  0  0  0  0  0
   22.6244   13.7603    8.1181 H   0  0  0  0  0  0  0  0  0  0  0  0
  1  2  1  0
  2  3  2  0
  2 11  1  0
  3  4  1  0
  4  9  2  0
  4 12  1  0
  5  6  1  0
  5 12  1  0
  5 13  2  0
  6  7  2  0
  7  8  1  0
  7  9  1  0
  8 17  1  0
  9 10  1  0
 10 11  2  0
 10 25  1  0
 14 17  2  0
 15 17  1  0
 16 17  1  0
  1 18  1  0
  1 19  1  0
  1 20  1  0
  3 23  1  0
  6 24  1  0
  8 21  1  0
  8 22  1  0
 11 28  1  0
 15 26  1  0
 16 27  1  0
M  END
>  <Favorite_cresset>
false

>  <Protein_cresset>
6D15_P

>  <MW_cresset>
333.1

>  <#Atoms_cresset>
18

>  <SlogP_cresset>
2.2

>  <TPSA_cresset>
83.8

>  <Flexibility_cresset>
4

>  <#RB_cresset>
4

>  <Rof5_cresset>
0

>  <Confs_cresset>
0

>  <Poses_cresset>
0

>  <Activity (Primary)_cresset>
No Primary Activity Set

>  <_cresset_fieldpoints2>
 2
    -5      17.591774      18.217421       3.822154    -14.7831
    -5      18.004652      14.475383       9.439002    -13.3609
    -5      23.728817      16.396400       5.681033     -1.2102
    -5      16.894869      19.883726       5.519902    -14.1838
    -5      16.805525      15.645450       9.430454    -12.8846
    -5      19.330376      17.538530      13.925289     -8.2594
    -6      20.641518      13.709765       2.891864      2.9668
    -6      23.812141      12.075554       8.275949      3.6669
    -6      18.105749      19.837097       9.954681     11.8284
    -6      21.028713      14.472878      12.490385      6.2505
    -7      23.686161      17.183533       6.487014     -2.1701
    -7      18.488026      14.107174       8.657334     -2.9746
    -7      20.370096      17.906410       3.561770     -1.5385
    -7      17.409304      15.708639       8.072321     -2.9479
    -7      19.069153      19.870720      12.165728     -1.3312
    -7      20.706034      15.454947      13.195819     -1.7400
    -7      21.530724      17.857834      12.760114     -1.8875
    -7      17.935904      20.261173      10.001348     -1.7302
    -7      22.997120      18.563660       8.006508     -2.4193
    -8      21.161011      15.210850       6.988486      7.0948
    -8      19.912403      17.173481       7.481965      5.4685
    -8      21.095079      16.482933       8.965450      5.9125
    -8      21.660545      15.575216       8.748051      5.7077
    -8      20.086521      17.377159       8.347153      5.4803

$$$$
