ligand_7
  xed2sdf           3D
 
 32 33  0  0  0  0  0  0  0  0999 V2000
   22.1750   12.8679    5.6219 C   0  0  0  0  0  0  0  0  0  0  0  0
   21.6589   14.1121    6.3421 C   0  0  0  0  0  0  0  0  0  0  0  0
   20.7990   14.9551    5.6718 C   0  0  0  0  0  0  0  0  0  0  0  0
   20.3000   16.1040    6.3161 C   0  0  0  0  0  0  0  0  0  0  0  0
   18.8321   17.9019    6.1690 C   0  0  0  0  0  0  0  0  0  0  0  0
   19.1058   18.1960    7.4760 C   0  0  0  0  0  0  0  0  0  0  0  0
   20.0541   17.5201    8.2051 C   0  0  0  0  0  0  0  0  0  0  0  0
   20.2320   17.8400    9.7021 C   0  0  0  0  0  0  0  0  0  0  0  0
   20.6098   16.3500    7.5859 C   0  0  0  0  0  0  0  0  0  0  0  0
   21.4759   15.4719    8.2768 C   0  0  0  0  0  0  0  0  0  0  0  0
   21.9981   14.3712    7.6340 C   0  0  0  0  0  0  0  0  0  0  0  0
   19.4322   16.8779    5.5870 O   0  0  0  0  0  0  0  0  0  0  0  0
   18.0860   18.5100    5.5470 O   0  0  0  0  0  0  0  0  0  0  0  0
   19.1801   17.1951   12.0479 O   0  0  0  0  0  0  0  0  0  0  0  0
   19.3270   15.3740   10.4920 O   0  0  0  0  0  0  0  0  0  0  0  0
   17.5828   17.2030   10.2269 O   0  0  0  0  0  0  0  0  0  0  0  0
   18.9950   16.8721   10.7400 P   0  0  0  0  0  0  0  0  0  0  0  0
   21.6570   12.7280    4.7779 H   0  0  0  0  0  0  0  0  0  0  0  0
   23.1420   12.9860    5.3951 H   0  0  0  0  0  0  0  0  0  0  0  0
   22.0640   12.0748    6.2220 H   0  0  0  0  0  0  0  0  0  0  0  0
   21.1611   17.5978    9.9830 H   0  0  0  0  0  0  0  0  0  0  0  0
   20.0919   18.8191    9.8501 H   0  0  0  0  0  0  0  0  0  0  0  0
   20.5300   14.7509    4.7309 H   0  0  0  0  0  0  0  0  0  0  0  0
   18.5959   18.9329    7.9191 H   0  0  0  0  0  0  0  0  0  0  0  0
   21.8311   15.6817    9.5477 O   0  0  0  0  0  0  0  0  0  0  0  0
   20.2209   15.1334   10.8854 H   0  0  0  0  0  0  0  0  0  0  0  0
   17.3351   18.1538   10.4426 H   0  0  0  0  0  0  0  0  0  0  0  0
   22.6054   14.6967   10.2670 C   0  0  0  0  0  0  0  0  0  0  0  0
   22.6195   13.7298    8.0809 H   0  0  0  0  0  0  0  0  0  0  0  0
   23.7019   14.5962    9.7894 H   0  0  0  0  0  0  0  0  0  0  0  0
   22.7145   15.0576   11.4063 H   0  0  0  0  0  0  0  0  0  0  0  0
   22.0503   13.6321   10.2533 H   0  0  0  0  0  0  0  0  0  0  0  0
  1  2  1  0
  2  3  2  0
  2 11  1  0
  3  4  1  0
  4  9  2  0
  4 12  1  0
  5  6  1  0
  5 12  1  0
  5 13  2  0
  6  7  2  0
  7  8  1  0
  7  9  1  0
  8 17  1  0
  9 10  1  0
 10 11  2  0
 10 25  1  0
 14 17  2  0
 15 17  1  0
 16 17  1  0
 25 28  1  0
  1 18  1  0
  1 19  1  0
  1 20  1  0
  3 23  1  0
  6 24  1  0
  8 21  1  0
  8 22  1  0
 11 29  1  0
 15 26  1  0
 16 27  1  0
 28 30  1  0
 28 31  1  0
 28 32  1  0
M  END
>  <Favorite_cresset>
false

>  <Protein_cresset>
6D15_P

>  <MW_cresset>
284.2

>  <#Atoms_cresset>
19

>  <SlogP_cresset>
1.4

>  <TPSA_cresset>
93.1

>  <Flexibility_cresset>
4.5

>  <#RB_cresset>
5

>  <Rof5_cresset>
0

>  <Confs_cresset>
0

>  <Poses_cresset>
0

>  <Activity (Primary)_cresset>
No Primary Activity Set

>  <_cresset_fieldpoints2>
 2
    -5      18.063887      14.532320       9.325281    -13.7061
    -5      23.554762      16.549755       5.572142     -1.5062
    -5      16.913479      19.889122       5.564931    -14.5437
    -5      17.613667      18.199825       3.823855    -15.1546
    -5      16.852276      15.660633       9.359526    -13.2284
    -5      19.327435      17.556469      13.922090     -8.3824
    -6      23.712112      12.272243       8.968449      5.6376
    -6      20.648266      13.684361       2.883395      2.7339
    -6      18.102882      19.844004       9.974907     11.4140
    -6      20.909294      14.250282      12.438230      7.1831
    -6      22.268494      17.209414      12.025787      3.0634
    -7      23.688038      17.009319       6.161902     -2.0109
    -7      18.540300      14.039366       8.679914     -2.8617
    -7      16.487047      17.018200       8.093169     -2.2761
    -7      21.827551      19.230307       6.463286     -2.0461
    -7      23.527111      17.888760       8.857002     -2.2512
    -7      17.384834      15.740571       8.059757     -2.8908
    -7      20.885460      15.604683      13.097667     -1.7917
    -7      21.780098      17.147564      12.550117     -2.0120
    -7      16.020718      17.450384      12.221773     -1.0366
    -7      17.932789      20.262796       9.998714     -1.7162
    -7      22.548923      11.381407       8.827240     -1.7955
    -8      21.150757      15.198412       6.954905      6.9678
    -8      19.890617      17.192858       7.451858      5.4115
    -8      19.992386      17.451733       8.265215      5.3470
    -8      23.041370      14.070713      10.571753      2.5239

$$$$
