ligand_16
  xed2sdf           3D
 
 26 27  0  0  0  0  0  0  0  0999 V2000
   22.3180   12.5799    5.4750 Br  0  0  0  0  0  0  0  0  0  0  0  0
   21.6590   14.1121    6.3419 C   0  0  0  0  0  0  0  0  0  0  0  0
   20.7990   14.9551    5.6719 C   0  0  0  0  0  0  0  0  0  0  0  0
   20.2999   16.1041    6.3161 C   0  0  0  0  0  0  0  0  0  0  0  0
   18.8320   17.9019    6.1689 C   0  0  0  0  0  0  0  0  0  0  0  0
   19.1060   18.1960    7.4760 C   0  0  0  0  0  0  0  0  0  0  0  0
   20.0539   17.5200    8.2051 C   0  0  0  0  0  0  0  0  0  0  0  0
   20.2320   17.8398    9.7021 C   0  0  0  0  0  0  0  0  0  0  0  0
   20.6099   16.3501    7.5860 C   0  0  0  0  0  0  0  0  0  0  0  0
   21.4760   15.4720    8.2769 C   0  0  0  0  0  0  0  0  0  0  0  0
   21.9980   14.3709    7.6340 C   0  0  0  0  0  0  0  0  0  0  0  0
   19.4319   16.8779    5.5869 N   0  0  0  0  0  0  0  0  0  0  0  0
   18.0860   18.5099    5.5471 O   0  0  0  0  0  0  0  0  0  0  0  0
   19.1800   17.1950   12.0480 O   0  0  0  0  0  0  0  0  0  0  0  0
   19.3268   15.3741   10.4920 O   0  0  0  0  0  0  0  0  0  0  0  0
   17.5830   17.2030   10.2271 O   0  0  0  0  0  0  0  0  0  0  0  0
   18.9950   16.8719   10.7400 P   0  0  0  0  0  0  0  0  0  0  0  0
   21.1611   17.5979    9.9828 H   0  0  0  0  0  0  0  0  0  0  0  0
   20.0921   18.8190    9.8500 H   0  0  0  0  0  0  0  0  0  0  0  0
   20.5301   14.7510    4.7311 H   0  0  0  0  0  0  0  0  0  0  0  0
   18.5959   18.9330    7.9190 H   0  0  0  0  0  0  0  0  0  0  0  0
   22.1039   15.7189   10.0373 Br  0  0  0  0  0  0  0  0  0  0  0  0
   20.2210   15.1332   10.8854 H   0  0  0  0  0  0  0  0  0  0  0  0
   17.3351   18.1539   10.4427 H   0  0  0  0  0  0  0  0  0  0  0  0
   22.6148   13.7534    8.1218 H   0  0  0  0  0  0  0  0  0  0  0  0
   19.2616   16.6862    4.7433 H   0  0  0  0  0  0  0  0  0  0  0  0
  1  2  1  0
  2  3  2  0
  2 11  1  0
  3  4  1  0
  4  9  2  0
  4 12  1  0
  5  6  1  0
  5 12  1  0
  5 13  2  0
  6  7  2  0
  7  8  1  0
  7  9  1  0
  8 17  1  0
  9 10  1  0
 10 11  2  0
 10 22  1  0
 14 17  2  0
 15 17  1  0
 16 17  1  0
  3 20  1  0
  6 21  1  0
  8 18  1  0
  8 19  1  0
 11 25  1  0
 12 26  1  0
 15 23  1  0
 16 24  1  0
M  END
>  <Favorite_cresset>
false

>  <Protein_cresset>
6D15_P

>  <MW_cresset>
397

>  <#Atoms_cresset>
18

>  <SlogP_cresset>
2.8

>  <TPSA_cresset>
86.6

>  <Flexibility_cresset>
4

>  <#RB_cresset>
4

>  <Rof5_cresset>
0

>  <Confs_cresset>
0

>  <Poses_cresset>
0

>  <Activity (Primary)_cresset>
No Primary Activity Set

>  <_cresset_fieldpoints2>
 2
    -5      16.846149      15.681190       9.329151    -13.1624
    -5      17.991913      14.513577       9.423025    -13.5071
    -5      16.932703      19.883118       5.604901    -15.7045
    -5      19.331453      17.546772      13.923726     -8.3356
    -6      19.485300      15.648684       3.150068      8.6534
    -6      23.707457      12.628483       9.395976      3.2950
    -6      18.106754      19.848789       9.998924     11.3934
    -6      22.342161      19.658978       9.800694      3.9982
    -6      21.025187      14.450994      12.483145      6.1941
    -7      23.000069      18.553116       7.996597     -2.4286
    -7      18.488708      14.110097       8.644903     -3.0164
    -7      17.412079      15.720123       8.047474     -3.0276
    -7      23.688057      17.088972       6.351784     -2.2148
    -7      21.864147      19.176752       6.463443     -2.1924
    -7      20.692438      15.448794      13.203186     -1.7380
    -7      17.936642      20.261780      10.000368     -1.7313
    -7      21.525352      17.866550      12.762781     -1.8871
    -8      21.818630      13.723076       6.136225      5.6246
    -8      21.156464      15.218105       6.986937      7.0899
    -8      19.893497      17.172009       7.428975      5.5331
    -8      20.081757      17.373434       8.336300      5.4911
    -8      21.086815      16.487034       8.968021      5.9283

$$$$
