ligand_14
  xed2sdf           3D
 
 25 26  0  0  0  0  0  0  0  0999 V2000
   21.6591   14.1121    6.3420 C   0  0  0  0  0  0  0  0  0  0  0  0
   20.7989   14.9551    5.6718 C   0  0  0  0  0  0  0  0  0  0  0  0
   20.3000   16.1040    6.3160 C   0  0  0  0  0  0  0  0  0  0  0  0
   18.8320   17.9018    6.1689 C   0  0  0  0  0  0  0  0  0  0  0  0
   19.1059   18.1961    7.4760 C   0  0  0  0  0  0  0  0  0  0  0  0
   20.0541   17.5200    8.2051 C   0  0  0  0  0  0  0  0  0  0  0  0
   20.2319   17.8400    9.7020 C   0  0  0  0  0  0  0  0  0  0  0  0
   20.6099   16.3501    7.5860 C   0  0  0  0  0  0  0  0  0  0  0  0
   21.4760   15.4721    8.2769 N   0  0  0  0  0  0  0  0  0  0  0  0
   21.9981   14.3711    7.6340 C   0  0  0  0  0  0  0  0  0  0  0  0
   19.4321   16.8780    5.5870 C   0  0  0  0  0  0  0  0  0  0  0  0
   19.1801   17.1949   12.0480 O   0  0  0  0  0  0  0  0  0  0  0  0
   19.3268   15.3741   10.4920 O   0  0  0  0  0  0  0  0  0  0  0  0
   17.5829   17.2030   10.2271 O   0  0  0  0  0  0  0  0  0  0  0  0
   18.9950   16.8719   10.7400 P   0  0  0  0  0  0  0  0  0  0  0  0
   21.1610   17.5978    9.9830 H   0  0  0  0  0  0  0  0  0  0  0  0
   20.0920   18.8189    9.8501 H   0  0  0  0  0  0  0  0  0  0  0  0
   20.5300   14.7510    4.7310 H   0  0  0  0  0  0  0  0  0  0  0  0
   18.5960   18.9330    7.9191 H   0  0  0  0  0  0  0  0  0  0  0  0
   20.2209   15.1333   10.8854 H   0  0  0  0  0  0  0  0  0  0  0  0
   17.3351   18.1539   10.4426 H   0  0  0  0  0  0  0  0  0  0  0  0
   22.0273   13.3045    5.8814 H   0  0  0  0  0  0  0  0  0  0  0  0
   22.6194   13.7566    8.1200 H   0  0  0  0  0  0  0  0  0  0  0  0
   18.1729   18.4532    5.6579 H   0  0  0  0  0  0  0  0  0  0  0  0
   19.2330   16.6554    4.6323 H   0  0  0  0  0  0  0  0  0  0  0  0
  1  2  2  0
  1 10  1  0
  2  3  1  0
  3  8  2  0
  3 11  1  0
  4  5  1  0
  4 11  2  0
  5  6  2  0
  6  7  1  0
  6  8  1  0
  7 15  1  0
  8  9  1  0
  9 10  2  0
 12 15  2  0
 13 15  1  0
 14 15  1  0
  1 22  1  0
  2 18  1  0
  4 24  1  0
  5 19  1  0
  7 16  1  0
  7 17  1  0
 10 23  1  0
 11 25  1  0
 13 20  1  0
 14 21  1  0
M  END
>  <Favorite_cresset>
false

>  <Protein_cresset>
6D15_P

>  <MW_cresset>
223.2

>  <#Atoms_cresset>
15

>  <SlogP_cresset>
1.9

>  <TPSA_cresset>
70.4

>  <Flexibility_cresset>
4

>  <#RB_cresset>
4

>  <Rof5_cresset>
0

>  <Confs_cresset>
0

>  <Poses_cresset>
0

>  <Activity (Primary)_cresset>
No Primary Activity Set

$$$$
