ligand_8
  xed2sdf           3D
 
 25 26  0  0  0  0  0  0  0  0999 V2000
   22.1336   13.0194    5.7270 F   0  0  0  0  0  0  0  0  0  0  0  0
   21.6591   14.1121    6.3421 C   0  0  0  0  0  0  0  0  0  0  0  0
   20.7991   14.9551    5.6720 C   0  0  0  0  0  0  0  0  0  0  0  0
   20.3001   16.1040    6.3160 C   0  0  0  0  0  0  0  0  0  0  0  0
   18.8319   17.9019    6.1689 C   0  0  0  0  0  0  0  0  0  0  0  0
   19.1060   18.1959    7.4760 C   0  0  0  0  0  0  0  0  0  0  0  0
   20.0540   17.5199    8.2050 C   0  0  0  0  0  0  0  0  0  0  0  0
   20.2320   17.8399    9.7020 C   0  0  0  0  0  0  0  0  0  0  0  0
   20.6099   16.3501    7.5860 C   0  0  0  0  0  0  0  0  0  0  0  0
   21.4760   15.4721    8.2771 C   0  0  0  0  0  0  0  0  0  0  0  0
   21.9981   14.3711    7.6340 C   0  0  0  0  0  0  0  0  0  0  0  0
   19.4321   16.8778    5.5870 O   0  0  0  0  0  0  0  0  0  0  0  0
   18.0859   18.5100    5.5473 O   0  0  0  0  0  0  0  0  0  0  0  0
   19.1800   17.1950   12.0480 O   0  0  0  0  0  0  0  0  0  0  0  0
   19.3269   15.3741   10.4918 O   0  0  0  0  0  0  0  0  0  0  0  0
   17.5830   17.2030   10.2269 O   0  0  0  0  0  0  0  0  0  0  0  0
   18.9951   16.8718   10.7398 P   0  0  0  0  0  0  0  0  0  0  0  0
   21.1611   17.5978    9.9830 H   0  0  0  0  0  0  0  0  0  0  0  0
   20.0920   18.8189    9.8502 H   0  0  0  0  0  0  0  0  0  0  0  0
   20.5300   14.7509    4.7309 H   0  0  0  0  0  0  0  0  0  0  0  0
   18.5960   18.9330    7.9189 H   0  0  0  0  0  0  0  0  0  0  0  0
   21.8469   15.6688    9.5429 F   0  0  0  0  0  0  0  0  0  0  0  0
   20.2210   15.1332   10.8854 H   0  0  0  0  0  0  0  0  0  0  0  0
   17.3351   18.1539   10.4425 H   0  0  0  0  0  0  0  0  0  0  0  0
   22.6154   13.7517    8.1201 H   0  0  0  0  0  0  0  0  0  0  0  0
  1  2  1  0
  2  3  2  0
  2 11  1  0
  3  4  1  0
  4  9  2  0
  4 12  1  0
  5  6  1  0
  5 12  1  0
  5 13  2  0
  6  7  2  0
  7  8  1  0
  7  9  1  0
  8 17  1  0
  9 10  1  0
 10 11  2  0
 10 22  1  0
 14 17  2  0
 15 17  1  0
 16 17  1  0
  3 20  1  0
  6 21  1  0
  8 18  1  0
  8 19  1  0
 11 25  1  0
 15 23  1  0
 16 24  1  0
M  END
>  <Favorite_cresset>
false

>  <Protein_cresset>
6D15_P

>  <MW_cresset>
276.1

>  <#Atoms_cresset>
18

>  <SlogP_cresset>
1.9

>  <TPSA_cresset>
83.8

>  <Flexibility_cresset>
4

>  <#RB_cresset>
4

>  <Rof5_cresset>
0

>  <Confs_cresset>
0

>  <Poses_cresset>
0

>  <Activity (Primary)_cresset>
No Primary Activity Set

>  <_cresset_fieldpoints2>
 2
    -5      22.027008      11.433836       3.344536     -1.1892
    -5      16.747658      15.651448       9.478539    -12.2271
    -5      17.836660      14.481230       9.687486    -12.5200
    -5      17.572643      18.254368       3.826989    -14.8641
    -5      16.907986      19.887196       5.555426    -14.3949
    -5      19.317352      17.539318      13.926138     -8.1818
    -6      20.365845      14.371848       2.746233      2.1587
    -6      22.704781      18.746801       8.590707      4.5182
    -6      23.530869      12.620475       9.510403      3.3538
    -6      18.105000      19.840149       9.963984     11.7668
    -6      21.476986      14.615210      12.234118      6.9030
    -7      21.899654      19.226490       6.598361     -2.0856
    -7      22.947861      18.609287       7.920417     -2.1527
    -7      17.398811      15.723364       8.063576     -2.9245
    -7      23.634171      17.113045       6.203753     -2.0452
    -7      18.368835      14.227207       8.589281     -2.8769
    -7      21.720747      16.754150      12.618847     -1.7009
    -7      19.237320      19.831053      12.267986     -1.2977
    -7      17.932846      20.261768       9.998931     -1.7209
    -8      21.164351      15.210180       6.998365      7.1284
    -8      20.851692      16.633593       8.731724      5.9419
    -8      19.915083      17.174179       7.487525      5.4711
    -8      20.109020      17.349144       8.361916      5.4863

$$$$
