ligand_4
  xed2sdf           3D
 
 28 29  0  0  0  0  0  0  0  0999 V2000
   22.1750   12.8679    5.6220 C   0  0  0  0  0  0  0  0  0  0  0  0
   21.6590   14.1121    6.3419 C   0  0  0  0  0  0  0  0  0  0  0  0
   20.7989   14.9550    5.6719 C   0  0  0  0  0  0  0  0  0  0  0  0
   20.3000   16.1041    6.3160 C   0  0  0  0  0  0  0  0  0  0  0  0
   18.8320   17.9019    6.1690 C   0  0  0  0  0  0  0  0  0  0  0  0
   19.1059   18.1961    7.4760 C   0  0  0  0  0  0  0  0  0  0  0  0
   20.0541   17.5200    8.2051 C   0  0  0  0  0  0  0  0  0  0  0  0
   20.2319   17.8399    9.7020 C   0  0  0  0  0  0  0  0  0  0  0  0
   20.6099   16.3500    7.5860 C   0  0  0  0  0  0  0  0  0  0  0  0
   21.4759   15.4720    8.2770 C   0  0  0  0  0  0  0  0  0  0  0  0
   21.9980   14.3710    7.6340 C   0  0  0  0  0  0  0  0  0  0  0  0
   19.4321   16.8779    5.5870 O   0  0  0  0  0  0  0  0  0  0  0  0
   18.0859   18.5100    5.5471 O   0  0  0  0  0  0  0  0  0  0  0  0
   19.1800   17.1950   12.0480 O   0  0  0  0  0  0  0  0  0  0  0  0
   19.3270   15.3741   10.4920 O   0  0  0  0  0  0  0  0  0  0  0  0
   17.5829   17.2030   10.2270 O   0  0  0  0  0  0  0  0  0  0  0  0
   18.9950   16.8720   10.7400 P   0  0  0  0  0  0  0  0  0  0  0  0
   21.6569   12.7281    4.7779 H   0  0  0  0  0  0  0  0  0  0  0  0
   23.1420   12.9860    5.3950 H   0  0  0  0  0  0  0  0  0  0  0  0
   22.0641   12.0747    6.2221 H   0  0  0  0  0  0  0  0  0  0  0  0
   21.1609   17.5978    9.9829 H   0  0  0  0  0  0  0  0  0  0  0  0
   20.0920   18.8190    9.8501 H   0  0  0  0  0  0  0  0  0  0  0  0
   20.5301   14.7509    4.7310 H   0  0  0  0  0  0  0  0  0  0  0  0
   18.5959   18.9329    7.9190 H   0  0  0  0  0  0  0  0  0  0  0  0
   21.7101   15.6500    9.2329 H   0  0  0  0  0  0  0  0  0  0  0  0
   20.2209   15.1332   10.8855 H   0  0  0  0  0  0  0  0  0  0  0  0
   17.3351   18.1538   10.4426 H   0  0  0  0  0  0  0  0  0  0  0  0
   22.6148   13.7535    8.1220 H   0  0  0  0  0  0  0  0  0  0  0  0
  1  2  1  0
  2  3  2  0
  2 11  1  0
  3  4  1  0
  4  9  2  0
  4 12  1  0
  5  6  1  0
  5 12  1  0
  5 13  2  0
  6  7  2  0
  7  8  1  0
  7  9  1  0
  8 17  1  0
  9 10  1  0
 10 11  2  0
 14 17  2  0
 15 17  1  0
 16 17  1  0
  1 18  1  0
  1 19  1  0
  1 20  1  0
  3 23  1  0
  6 24  1  0
  8 21  1  0
  8 22  1  0
 10 25  1  0
 11 28  1  0
 15 26  1  0
 16 27  1  0
M  END
>  <Favorite_cresset>
false

>  <Protein_cresset>
6D15_P

>  <MW_cresset>
254.2

>  <#Atoms_cresset>
17

>  <SlogP_cresset>
1.4

>  <TPSA_cresset>
83.8

>  <Flexibility_cresset>
4

>  <#RB_cresset>
4

>  <Rof5_cresset>
0

>  <Confs_cresset>
0

>  <Poses_cresset>
0

>  <Activity (Primary)_cresset>
No Primary Activity Set

$$$$
