ligand_10
  xed2sdf           3D
 
 28 29  0  0  0  0  0  0  0  0999 V2000
   22.1750   12.8679    5.6221 C   0  0  0  0  0  0  0  0  0  0  0  0
   21.6591   14.1122    6.3420 C   0  0  0  0  0  0  0  0  0  0  0  0
   20.7988   14.9550    5.6719 C   0  0  0  0  0  0  0  0  0  0  0  0
   20.2999   16.1042    6.3161 C   0  0  0  0  0  0  0  0  0  0  0  0
   18.8319   17.9020    6.1690 C   0  0  0  0  0  0  0  0  0  0  0  0
   19.1060   18.1961    7.4760 C   0  0  0  0  0  0  0  0  0  0  0  0
   20.0540   17.5201    8.2050 C   0  0  0  0  0  0  0  0  0  0  0  0
   20.2319   17.8400    9.7020 C   0  0  0  0  0  0  0  0  0  0  0  0
   20.6098   16.3500    7.5859 C   0  0  0  0  0  0  0  0  0  0  0  0
   21.4759   15.4721    8.2769 C   0  0  0  0  0  0  0  0  0  0  0  0
   21.9981   14.3712    7.6340 C   0  0  0  0  0  0  0  0  0  0  0  0
   19.4321   16.8780    5.5870 O   0  0  0  0  0  0  0  0  0  0  0  0
   18.0859   18.5100    5.5470 O   0  0  0  0  0  0  0  0  0  0  0  0
   19.1800   17.1949   12.0479 O   0  0  0  0  0  0  0  0  0  0  0  0
   19.3269   15.3740   10.4919 O   0  0  0  0  0  0  0  0  0  0  0  0
   17.5829   17.2030   10.2270 O   0  0  0  0  0  0  0  0  0  0  0  0
   18.9950   16.8720   10.7401 P   0  0  0  0  0  0  0  0  0  0  0  0
   21.6571   12.7281    4.7780 H   0  0  0  0  0  0  0  0  0  0  0  0
   23.1420   12.9862    5.3949 H   0  0  0  0  0  0  0  0  0  0  0  0
   22.0642   12.0748    6.2221 H   0  0  0  0  0  0  0  0  0  0  0  0
   21.1610   17.5979    9.9831 H   0  0  0  0  0  0  0  0  0  0  0  0
   20.0920   18.8189    9.8501 H   0  0  0  0  0  0  0  0  0  0  0  0
   20.5301   14.7511    4.7311 H   0  0  0  0  0  0  0  0  0  0  0  0
   18.5959   18.9330    7.9192 H   0  0  0  0  0  0  0  0  0  0  0  0
   21.8465   15.6673    9.5458 F   0  0  0  0  0  0  0  0  0  0  0  0
   20.2209   15.1332   10.8855 H   0  0  0  0  0  0  0  0  0  0  0  0
   17.3350   18.1538   10.4425 H   0  0  0  0  0  0  0  0  0  0  0  0
   22.6155   13.7519    8.1201 H   0  0  0  0  0  0  0  0  0  0  0  0
  1  2  1  0
  2  3  2  0
  2 11  1  0
  3  4  1  0
  4  9  2  0
  4 12  1  0
  5  6  1  0
  5 12  1  0
  5 13  2  0
  6  7  2  0
  7  8  1  0
  7  9  1  0
  8 17  1  0
  9 10  1  0
 10 11  2  0
 10 25  1  0
 14 17  2  0
 15 17  1  0
 16 17  1  0
  1 18  1  0
  1 19  1  0
  1 20  1  0
  3 23  1  0
  6 24  1  0
  8 21  1  0
  8 22  1  0
 11 28  1  0
 15 26  1  0
 16 27  1  0
M  END
>  <Favorite_cresset>
false

>  <Protein_cresset>
6D15_P

>  <MW_cresset>
272.2

>  <#Atoms_cresset>
18

>  <SlogP_cresset>
1.8

>  <TPSA_cresset>
83.8

>  <Flexibility_cresset>
4

>  <#RB_cresset>
4

>  <Rof5_cresset>
0

>  <Confs_cresset>
0

>  <Poses_cresset>
0

>  <Activity (Primary)_cresset>
No Primary Activity Set

>  <_cresset_fieldpoints2>
 2
    -5      17.593721      18.221436       3.821664    -14.8761
    -5      16.781067      15.651762       9.442341    -12.7949
    -5      17.904827      14.496777       9.557474    -13.0367
    -5      16.897104      19.882500       5.529261    -14.2975
    -5      19.335938      17.532200      13.925932     -8.3705
    -6      20.648064      13.705940       2.890680      2.9911
    -6      23.803305      12.044510       8.203015      3.6931
    -6      21.453583      14.676544      12.277237      6.6070
    -6      18.104965      19.838512       9.958862     11.7478
    -7      21.911112      19.223595       6.603141     -2.0848
    -7      23.654175      17.062141       6.171659     -2.0513
    -7      21.725037      16.762802      12.620464     -1.7001
    -7      17.397705      15.722298       8.064376     -2.9241
    -7      20.377079      17.911678       3.566751     -1.5373
    -7      22.946587      18.611786       7.927425     -2.1517
    -7      18.371609      14.225042       8.591267     -2.8774
    -7      17.931419      20.260330       9.996677     -1.7209
    -8      21.160835      15.211180       6.997595      7.1229
    -8      20.855007      16.629742       8.729189      5.9394
    -8      19.915030      17.174168       7.487567      5.4718
    -8      20.110310      17.349707       8.357989      5.4862

$$$$
