ligand_3
  xed2sdf           3D
 
 28 30  0  0  0  0  0  0  0  0999 V2000
   22.2439   13.0036    5.9276 O   0  0  0  0  0  0  0  0  0  0  0  0
   21.6591   14.1121    6.3420 C   0  0  0  0  0  0  0  0  0  0  0  0
   20.7989   14.9551    5.6720 C   0  0  0  0  0  0  0  0  0  0  0  0
   20.3000   16.1041    6.3159 C   0  0  0  0  0  0  0  0  0  0  0  0
   18.8319   17.9018    6.1689 C   0  0  0  0  0  0  0  0  0  0  0  0
   19.1058   18.1961    7.4760 C   0  0  0  0  0  0  0  0  0  0  0  0
   20.0540   17.5200    8.2051 C   0  0  0  0  0  0  0  0  0  0  0  0
   20.2318   17.8398    9.7020 C   0  0  0  0  0  0  0  0  0  0  0  0
   20.6099   16.3500    7.5860 C   0  0  0  0  0  0  0  0  0  0  0  0
   21.4760   15.4720    8.2770 C   0  0  0  0  0  0  0  0  0  0  0  0
   21.9980   14.3712    7.6340 C   0  0  0  0  0  0  0  0  0  0  0  0
   22.8326   13.4408    8.0798 O   0  0  0  0  0  0  0  0  0  0  0  0
   19.4319   16.8779    5.5870 O   0  0  0  0  0  0  0  0  0  0  0  0
   18.0861   18.5099    5.5470 O   0  0  0  0  0  0  0  0  0  0  0  0
   19.1801   17.1950   12.0479 O   0  0  0  0  0  0  0  0  0  0  0  0
   19.3269   15.3741   10.4920 O   0  0  0  0  0  0  0  0  0  0  0  0
   17.5830   17.2029   10.2269 O   0  0  0  0  0  0  0  0  0  0  0  0
   18.9951   16.8719   10.7400 P   0  0  0  0  0  0  0  0  0  0  0  0
   21.1609   17.5979    9.9830 H   0  0  0  0  0  0  0  0  0  0  0  0
   20.0920   18.8191    9.8502 H   0  0  0  0  0  0  0  0  0  0  0  0
   20.5302   14.7511    4.7309 H   0  0  0  0  0  0  0  0  0  0  0  0
   18.5959   18.9329    7.9190 H   0  0  0  0  0  0  0  0  0  0  0  0
   21.7100   15.6498    9.2329 H   0  0  0  0  0  0  0  0  0  0  0  0
   20.2209   15.1334   10.8854 H   0  0  0  0  0  0  0  0  0  0  0  0
   17.3351   18.1539   10.4426 H   0  0  0  0  0  0  0  0  0  0  0  0
   23.0978   12.4961    6.9978 C   0  0  0  0  0  0  0  0  0  0  0  0
   24.2530   12.5310    6.6746 H   0  0  0  0  0  0  0  0  0  0  0  0
   22.7721   11.3848    7.3126 H   0  0  0  0  0  0  0  0  0  0  0  0
  1  2  1  0
  1 26  1  0
  2  3  2  0
  2 11  1  0
  3  4  1  0
  4  9  2  0
  4 13  1  0
  5  6  1  0
  5 13  1  0
  5 14  2  0
  6  7  2  0
  7  8  1  0
  7  9  1  0
  8 18  1  0
  9 10  1  0
 10 11  2  0
 11 12  1  0
 12 26  1  0
 15 18  2  0
 16 18  1  0
 17 18  1  0
  3 21  1  0
  6 22  1  0
  8 19  1  0
  8 20  1  0
 10 23  1  0
 16 24  1  0
 17 25  1  0
 26 27  1  0
 26 28  1  0
M  END
>  <Favorite_cresset>
false

>  <Protein_cresset>
6D15_P

>  <MW_cresset>
284.2

>  <#Atoms_cresset>
19

>  <SlogP_cresset>
0.8

>  <TPSA_cresset>
102.3

>  <Flexibility_cresset>
4.2

>  <#RB_cresset>
4

>  <Rof5_cresset>
0

>  <Confs_cresset>
0

>  <Poses_cresset>
0

>  <Activity (Primary)_cresset>
No Primary Activity Set

>  <_cresset_fieldpoints2>
 2
    -5      21.950142      11.922415       4.042731     -3.1963
    -5      17.605402      18.206669       3.823980    -15.0530
    -5      17.977474      14.490618       9.460621    -12.9518
    -5      16.905041      19.884384       5.544246    -14.4420
    -5      16.808395      15.674609       9.372887    -12.4790
    -5      23.988235      13.184549       9.918427     -2.3729
    -5      19.286152      17.545464      13.926966     -8.0214
    -6      24.865818      10.279577       7.017276      3.2990
    -6      20.372925      14.152699       2.776156      1.7269
    -6      21.967588      15.850446      11.201238     12.4755
    -6      18.112312      19.842285       9.984093     11.8018
    -7      24.702854      15.383780       6.045610     -1.8000
    -7      21.791594      19.242872       6.417048     -2.0268
    -7      19.871277      11.968418       8.188459     -1.8140
    -7      23.697426      16.969135       6.081284     -1.9388
    -7      20.329832      17.903551       3.547932     -1.5239
    -7      22.238424      15.831806      11.603945     -2.0545
    -7      17.929859      20.262859       9.996812     -1.7143
    -7      19.220709      19.822124      12.282856     -1.2840
    -7      22.285706      14.293011      11.209245     -1.7231
    -7      18.250643      14.347479       8.538481     -2.7178
    -7      17.366882      15.763630       8.051645     -2.8660
    -8      20.690615      16.776272       8.626020      5.5094
    -8      19.907217      17.179934       7.476283      5.4471
    -8      20.054234      17.397247       8.316825      5.4367
    -8      21.122284      15.266415       6.993628      6.8049
    -8      23.788525      11.597746       6.991382      1.8385

$$$$
