ligand_12
  xed2sdf           3D
 
 29 30  0  0  0  0  0  0  0  0999 V2000
   21.6591   14.1121    6.3421 C   0  0  0  0  0  0  0  0  0  0  0  0
   20.7989   14.9552    5.6719 C   0  0  0  0  0  0  0  0  0  0  0  0
   20.3000   16.1040    6.3160 C   0  0  0  0  0  0  0  0  0  0  0  0
   18.8319   17.9019    6.1689 C   0  0  0  0  0  0  0  0  0  0  0  0
   19.1059   18.1961    7.4761 C   0  0  0  0  0  0  0  0  0  0  0  0
   20.0541   17.5201    8.2051 C   0  0  0  0  0  0  0  0  0  0  0  0
   20.2319   17.8399    9.7020 C   0  0  0  0  0  0  0  0  0  0  0  0
   20.6100   16.3501    7.5860 C   0  0  0  0  0  0  0  0  0  0  0  0
   21.4759   15.4719    8.2769 C   0  0  0  0  0  0  0  0  0  0  0  0
   21.9979   14.3711    7.6337 C   0  0  0  0  0  0  0  0  0  0  0  0
   19.4319   16.8779    5.5870 N   0  0  0  0  0  0  0  0  0  0  0  0
   18.0860   18.5099    5.5472 O   0  0  0  0  0  0  0  0  0  0  0  0
   19.1800   17.1949   12.0480 O   0  0  0  0  0  0  0  0  0  0  0  0
   19.3270   15.3740   10.4919 O   0  0  0  0  0  0  0  0  0  0  0  0
   17.5829   17.2030   10.2270 O   0  0  0  0  0  0  0  0  0  0  0  0
   18.9951   16.8719   10.7399 P   0  0  0  0  0  0  0  0  0  0  0  0
   21.1611   17.5980    9.9830 H   0  0  0  0  0  0  0  0  0  0  0  0
   20.0920   18.8191    9.8502 H   0  0  0  0  0  0  0  0  0  0  0  0
   20.5301   14.7509    4.7310 H   0  0  0  0  0  0  0  0  0  0  0  0
   18.5961   18.9330    7.9191 H   0  0  0  0  0  0  0  0  0  0  0  0
   21.7102   15.6500    9.2329 H   0  0  0  0  0  0  0  0  0  0  0  0
   20.2209   15.1332   10.8854 H   0  0  0  0  0  0  0  0  0  0  0  0
   17.3351   18.1538   10.4427 H   0  0  0  0  0  0  0  0  0  0  0  0
   19.0636   16.5453    4.1927 C   0  0  0  0  0  0  0  0  0  0  0  0
   22.0262   13.3037    5.8818 H   0  0  0  0  0  0  0  0  0  0  0  0
   22.6175   13.7554    8.1206 H   0  0  0  0  0  0  0  0  0  0  0  0
   18.3145   17.3594    3.7280 H   0  0  0  0  0  0  0  0  0  0  0  0
   20.0501   16.5193    3.5105 H   0  0  0  0  0  0  0  0  0  0  0  0
   18.5212   15.4749    4.1657 H   0  0  0  0  0  0  0  0  0  0  0  0
  1  2  2  0
  1 10  1  0
  2  3  1  0
  3  8  2  0
  3 11  1  0
  4  5  1  0
  4 11  1  0
  4 12  2  0
  5  6  2  0
  6  7  1  0
  6  8  1  0
  7 16  1  0
  8  9  1  0
  9 10  2  0
 11 24  1  0
 13 16  2  0
 14 16  1  0
 15 16  1  0
  1 25  1  0
  2 19  1  0
  5 20  1  0
  7 17  1  0
  7 18  1  0
  9 21  1  0
 10 26  1  0
 14 22  1  0
 15 23  1  0
 24 27  1  0
 24 28  1  0
 24 29  1  0
M  END
>  <Favorite_cresset>
false

>  <Protein_cresset>
6D15_P

>  <MW_cresset>
253.2

>  <#Atoms_cresset>
17

>  <SlogP_cresset>
1.2

>  <TPSA_cresset>
77.8

>  <Flexibility_cresset>
4

>  <#RB_cresset>
4

>  <Rof5_cresset>
0

>  <Confs_cresset>
0

>  <Poses_cresset>
0

>  <Activity (Primary)_cresset>
No Primary Activity Set

>  <_cresset_fieldpoints2>
 2
    -5      23.416794      16.779608       5.934697     -2.3413
    -5      18.299910      14.570438       9.090337    -13.8468
    -5      16.961033      19.891159       5.656400    -16.0448
    -5      16.916586      15.775606       9.139087    -13.5619
    -5      19.282862      17.556406      13.925192     -8.1932
    -6      20.110634      14.237881       2.776189      5.0693
    -6      23.520851      11.781410       6.798372      2.7144
    -6      18.104546      19.853786      10.014788     11.2432
    -6      21.990467      15.785191      11.214684     12.1564
    -7      23.457794      17.281939       5.992413     -1.9054
    -7      21.560684      19.037228       5.674176     -2.2587
    -7      23.593781      11.421068       7.091178     -0.9689
    -7      17.929995      20.261946       9.993634     -1.7166
    -7      16.035248      17.478451      12.235456     -1.0357
    -7      22.229977      15.851395      11.618595     -2.0234
    -7      20.156601      13.877464       2.505431     -1.3804
    -7      17.370914      15.781600       7.988779     -3.0635
    -7      21.761013      14.782843       2.529108     -1.3252
    -8      21.155117      15.217437       6.987074      7.0916
    -8      19.892471      17.174046       7.420313      5.5287
    -8      20.056873      17.386957       8.297823      5.4567
    -8      20.693336      16.765350       8.613787      5.5325

$$$$
