ligand_6
  xed2sdf           3D
 
 31 32  0  0  0  0  0  0  0  0999 V2000
   22.1751   12.8681    5.6221 C   0  0  0  0  0  0  0  0  0  0  0  0
   21.6592   14.1121    6.3419 C   0  0  0  0  0  0  0  0  0  0  0  0
   20.7989   14.9552    5.6719 C   0  0  0  0  0  0  0  0  0  0  0  0
   20.3001   16.1040    6.3159 C   0  0  0  0  0  0  0  0  0  0  0  0
   18.8320   17.9018    6.1690 C   0  0  0  0  0  0  0  0  0  0  0  0
   19.1059   18.1959    7.4760 C   0  0  0  0  0  0  0  0  0  0  0  0
   20.0540   17.5200    8.2050 C   0  0  0  0  0  0  0  0  0  0  0  0
   20.2319   17.8400    9.7019 C   0  0  0  0  0  0  0  0  0  0  0  0
   20.6099   16.3500    7.5861 C   0  0  0  0  0  0  0  0  0  0  0  0
   21.4760   15.4720    8.2771 C   0  0  0  0  0  0  0  0  0  0  0  0
   21.9979   14.3712    7.6339 C   0  0  0  0  0  0  0  0  0  0  0  0
   19.4320   16.8780    5.5870 O   0  0  0  0  0  0  0  0  0  0  0  0
   18.0858   18.5098    5.5472 O   0  0  0  0  0  0  0  0  0  0  0  0
   19.1801   17.1950   12.0480 O   0  0  0  0  0  0  0  0  0  0  0  0
   19.3271   15.3740   10.4919 O   0  0  0  0  0  0  0  0  0  0  0  0
   17.5828   17.2031   10.2270 O   0  0  0  0  0  0  0  0  0  0  0  0
   18.9950   16.8721   10.7399 P   0  0  0  0  0  0  0  0  0  0  0  0
   21.6569   12.7281    4.7780 H   0  0  0  0  0  0  0  0  0  0  0  0
   23.1421   12.9861    5.3950 H   0  0  0  0  0  0  0  0  0  0  0  0
   22.0639   12.0748    6.2222 H   0  0  0  0  0  0  0  0  0  0  0  0
   21.1610   17.5979    9.9829 H   0  0  0  0  0  0  0  0  0  0  0  0
   20.0919   18.8190    9.8501 H   0  0  0  0  0  0  0  0  0  0  0  0
   20.5301   14.7511    4.7310 H   0  0  0  0  0  0  0  0  0  0  0  0
   18.5957   18.9331    7.9190 H   0  0  0  0  0  0  0  0  0  0  0  0
   22.1812   15.5047    9.6460 C   0  0  0  0  0  0  0  0  0  0  0  0
   20.2209   15.1332   10.8855 H   0  0  0  0  0  0  0  0  0  0  0  0
   17.3350   18.1539   10.4427 H   0  0  0  0  0  0  0  0  0  0  0  0
   22.6188   13.7474    8.1116 H   0  0  0  0  0  0  0  0  0  0  0  0
   23.1694   16.1611    9.4733 H   0  0  0  0  0  0  0  0  0  0  0  0
   22.5465   14.4166    9.9959 H   0  0  0  0  0  0  0  0  0  0  0  0
   21.6866   15.9261   10.6455 H   0  0  0  0  0  0  0  0  0  0  0  0
  1  2  1  0
  2  3  2  0
  2 11  1  0
  3  4  1  0
  4  9  2  0
  4 12  1  0
  5  6  1  0
  5 12  1  0
  5 13  2  0
  6  7  2  0
  7  8  1  0
  7  9  1  0
  8 17  1  0
  9 10  1  0
 10 11  2  0
 10 25  1  0
 14 17  2  0
 15 17  1  0
 16 17  1  0
  1 18  1  0
  1 19  1  0
  1 20  1  0
  3 23  1  0
  6 24  1  0
  8 21  1  0
  8 22  1  0
 11 28  1  0
 15 26  1  0
 16 27  1  0
 25 29  1  0
 25 30  1  0
 25 31  1  0
M  END
>  <Favorite_cresset>
false

>  <Protein_cresset>
6D15_P

>  <MW_cresset>
268.2

>  <#Atoms_cresset>
18

>  <SlogP_cresset>
1.7

>  <TPSA_cresset>
83.8

>  <Flexibility_cresset>
4

>  <#RB_cresset>
4

>  <Rof5_cresset>
0

>  <Confs_cresset>
0

>  <Poses_cresset>
0

>  <Activity (Primary)_cresset>
No Primary Activity Set

>  <_cresset_fieldpoints2>
 2
    -5      17.608871      18.196877       3.817920    -14.8603
    -5      18.226358      14.479363       9.206182    -13.7160
    -5      16.846674      15.663850       9.358822    -13.0507
    -5      23.631992      16.434378       5.817770     -1.9953
    -5      16.896606      19.885441       5.517918    -14.1941
    -5      19.267370      17.553823      13.926448     -7.9853
    -6      23.906120      12.671344       9.320374      4.0342
    -6      22.819515      17.885460      11.339314      5.2817
    -6      20.637209      13.702238       2.882626      2.6881
    -6      18.112999      19.837883       9.970148     11.8316
    -6      21.400507      14.456120      12.232799      8.7377
    -7      18.421761      14.165966       8.615944     -2.8551
    -7      23.044714      18.510555       8.061440     -2.3387
    -7      21.970165      19.213276       6.692397     -2.0842
    -7      17.389751      15.731703       8.060968     -2.9052
    -7      21.003418      15.572262      13.049395     -1.7030
    -7      17.931313      20.260883       9.999260     -1.7192
    -7      16.005680      17.418625      12.202229     -1.0375
    -7      23.725119      17.127613       6.476324     -2.1468
    -7      21.701674      17.483440      12.676636     -1.8104
    -8      21.163952      15.210869       6.992230      7.1138
    -8      19.909588      17.173756       7.478750      5.4641
    -8      20.828583      16.685976       8.719179      5.6535
    -8      20.065903      17.386879       8.324957      5.4625

$$$$
