TWB
  xed2sdf           3D
 
 28 29  0  0  0  0  0  0  0  0999 V2000
   22.2800   14.0230    7.1700 C   0  0  0  0  0  0  0  0  0  0  0  0
   21.4390   14.6260    6.2770 C   0  0  0  0  0  0  0  0  0  0  0  0
   20.6560   15.7160    6.6560 C   0  0  0  0  0  0  0  0  0  0  0  0
   19.0310   17.3980    6.1420 C   0  0  0  0  0  0  0  0  0  0  0  0
   19.1570   17.9480    7.4540 C   0  0  0  0  0  0  0  0  0  0  0  0
   19.9890   17.3790    8.3480 C   0  0  0  0  0  0  0  0  0  0  0  0
   20.1000   18.0800    9.6790 C   0  0  0  0  0  0  0  0  0  0  0  0
   20.7640   16.1970    7.9620 C   0  0  0  0  0  0  0  0  0  0  0  0
   21.6150   15.5580    8.8650 C   0  0  0  0  0  0  0  0  0  0  0  0
   22.3610   14.4860    8.4750 C   0  0  0  0  0  0  0  0  0  0  0  0
   19.7690   16.3350    5.7710 N   0  0  0  0  0  0  0  0  0  0  0  0
   19.2910   18.0150   12.2540 O   0  5  0  0  0  0  0  0  0  0  0  0
   19.7180   15.7860   11.0830 O   0  5  0  0  0  0  0  0  0  0  0  0
   17.6710   17.1700   10.4890 O   0  0  0  0  0  0  0  0  0  0  0  0
   19.1990   17.1950   10.9920 P   0  0  0  0  0  0  0  0  0  0  0  0
   18.2140   17.9920    5.4460 O   0  0  0  0  0  0  0  0  0  0  0  0
   19.5780   15.8610    4.3850 C   0  0  0  0  0  0  0  0  0  0  0  0
   22.8420   13.2470    6.8800 H   0  0  0  0  0  0  0  0  0  0  0  0
   21.3960   14.2760    5.3450 H   0  0  0  0  0  0  0  0  0  0  0  0
   18.6229   18.7430    7.6920 H   0  0  0  0  0  0  0  0  0  0  0  0
   21.2560   18.2110    9.9750 H   0  0  0  0  0  0  0  0  0  0  0  0
   19.5940   19.1670    9.6390 H   0  0  0  0  0  0  0  0  0  0  0  0
   21.6790   15.8910    9.8070 H   0  0  0  0  0  0  0  0  0  0  0  0
   17.2090   18.0220   10.7480 H   0  0  0  0  0  0  0  0  0  0  0  0
   22.9710   14.0370    9.1280 H   0  0  0  0  0  0  0  0  0  0  0  0
   18.4010   15.8740    4.1810 H   0  0  0  0  0  0  0  0  0  0  0  0
   20.1020   16.6190    3.6150 H   0  0  0  0  0  0  0  0  0  0  0  0
   19.9140   14.7360    4.1440 H   0  0  0  0  0  0  0  0  0  0  0  0
  2  1  2  0
  3  2  1  0
  5  4  1  0
  6  5  2  0
  7  6  1  0
  8  3  2  0
  8  6  1  0
  9  8  1  0
 10  1  1  0
 10  9  2  0
 11  3  1  0
 11  4  1  0
 15  7  1  0
 15 12  1  0
 15 13  1  0
 15 14  1  0
 16  4  2  0
 17 11  1  0
 18  1  1  0
 19  2  1  0
 20  5  1  0
 21  7  1  0
 22  7  1  0
 23  9  1  0
 24 14  1  0
 25 10  1  0
 26 17  1  0
 27 17  1  0
 28 17  1  0
M  CHG  2  12  -1  13  -1
M  END
>  <Favorite_cresset>
false

>  <MW_cresset>
252.2

>  <#Atoms_cresset>
17

>  <SlogP_cresset>
1.2

>  <TPSA_cresset>
86.7

>  <Flexibility_cresset>
3

>  <#RB_cresset>
3

>  <Rof5_cresset>
0

>  <Filename_cresset>
lig_h_12.mol2

>  <Confs_cresset>
0

>  <Poses_cresset>
0

>  <Activity (Primary)_cresset>
No Primary Activity Set

$$$$
