TWB
  xed2sdf           3D
 
 27 28  0  0  0  0  0  0  0  0999 V2000
   21.4960   14.0740    6.2420 C   0  0  0  0  0  0  0  0  0  0  0  0
   20.5550   14.8400    5.6090 C   0  0  0  0  0  0  0  0  0  0  0  0
   20.0350   15.9780    6.2030 C   0  0  0  0  0  0  0  0  0  0  0  0
   18.5550   17.7490    6.0980 C   0  0  0  0  0  0  0  0  0  0  0  0
   18.8750   18.1710    7.4240 C   0  0  0  0  0  0  0  0  0  0  0  0
   19.7940   17.4920    8.1350 C   0  0  0  0  0  0  0  0  0  0  0  0
   20.0470   18.0640    9.5170 C   0  0  0  0  0  0  0  0  0  0  0  0
   20.4420   16.3450    7.4880 C   0  0  0  0  0  0  0  0  0  0  0  0
   21.4410   15.5810    8.1000 C   0  0  0  0  0  0  0  0  0  0  0  0
   21.9510   14.4650    7.4890 C   0  0  0  0  0  0  0  0  0  0  0  0
   19.1170   16.6810    5.4870 O   0  0  0  0  0  0  0  0  0  0  0  0
   19.2910   17.9820   12.1210 O   0  5  0  0  0  0  0  0  0  0  0  0
   19.5760   15.7460   10.9170 O   0  5  0  0  0  0  0  0  0  0  0  0
   17.5910   17.2340   10.4070 O   0  0  0  0  0  0  0  0  0  0  0  0
   19.1370   17.1850   10.8480 P   0  0  0  0  0  0  0  0  0  0  0  0
   22.0270   12.8090    5.5880 C   0  0  0  0  0  0  0  0  0  0  0  0
   17.7090   18.4400    5.5440 O   0  0  0  0  0  0  0  0  0  0  0  0
   21.9190   15.9300    9.2960 F   0  0  0  0  0  0  0  0  0  0  0  0
   20.2300   14.5720    4.7010 H   0  0  0  0  0  0  0  0  0  0  0  0
   18.4030   18.9530    7.8060 H   0  0  0  0  0  0  0  0  0  0  0  0
   21.2180   18.1390    9.7650 H   0  0  0  0  0  0  0  0  0  0  0  0
   19.6060   19.1770    9.5970 H   0  0  0  0  0  0  0  0  0  0  0  0
   17.1610   18.0750   10.7450 H   0  0  0  0  0  0  0  0  0  0  0  0
   22.6550   13.9270    7.9520 H   0  0  0  0  0  0  0  0  0  0  0  0
   23.2240   12.8540    5.5000 H   0  0  0  0  0  0  0  0  0  0  0  0
   21.5640   12.6710    4.4890 H   0  0  0  0  0  0  0  0  0  0  0  0
   21.7160   11.8560    6.2500 H   0  0  0  0  0  0  0  0  0  0  0  0
  2  1  2  0
  3  2  1  0
  5  4  1  0
  6  5  2  0
  7  6  1  0
  8  3  2  0
  8  6  1  0
  9  8  1  0
 10  1  1  0
 10  9  2  0
 11  3  1  0
 11  4  1  0
 15  7  1  0
 15 12  1  0
 15 13  1  0
 15 14  1  0
 16  1  1  0
 17  4  2  0
 18  9  1  0
 19  2  1  0
 20  5  1  0
 21  7  1  0
 22  7  1  0
 23 14  1  0
 24 10  1  0
 25 16  1  0
 26 16  1  0
 27 16  1  0
M  CHG  2  12  -1  13  -1
M  END
>  <Favorite_cresset>
false

>  <MW_cresset>
271.2

>  <#Atoms_cresset>
18

>  <SlogP_cresset>
1.8

>  <TPSA_cresset>
92.6

>  <Flexibility_cresset>
3

>  <#RB_cresset>
3

>  <Rof5_cresset>
0

>  <Filename_cresset>
lig_h_10.mol2

>  <Confs_cresset>
0

>  <Poses_cresset>
0

>  <Activity (Primary)_cresset>
No Primary Activity Set

$$$$
