TWB
  xed2sdf           3D
 
 29 30  0  0  0  0  0  0  0  0999 V2000
   22.1640   14.0290    6.9440 C   0  0  0  0  0  0  0  0  0  0  0  0
   21.2210   14.6370    6.1700 C   0  0  0  0  0  0  0  0  0  0  0  0
   20.5500   15.7590    6.6460 C   0  0  0  0  0  0  0  0  0  0  0  0
   18.9130   17.4610    6.2200 C   0  0  0  0  0  0  0  0  0  0  0  0
   19.1190   17.9840    7.5330 C   0  0  0  0  0  0  0  0  0  0  0  0
   20.0150   17.4160    8.3730 C   0  0  0  0  0  0  0  0  0  0  0  0
   20.0880   18.1150    9.7100 C   0  0  0  0  0  0  0  0  0  0  0  0
   20.8180   16.2680    7.9210 C   0  0  0  0  0  0  0  0  0  0  0  0
   21.8340   15.6530    8.6710 C   0  0  0  0  0  0  0  0  0  0  0  0
   22.4700   14.5440    8.1920 C   0  0  0  0  0  0  0  0  0  0  0  0
   19.6150   16.3840    5.8380 N   0  0  0  0  0  0  0  0  0  0  0  0
   19.2410   18.1000   12.2610 O   0  5  0  0  0  0  0  0  0  0  0  0
   19.5340   15.8330   11.1140 O   0  5  0  0  0  0  0  0  0  0  0  0
   17.5840   17.3240   10.4990 O   0  0  0  0  0  0  0  0  0  0  0  0
   19.1100   17.2730   11.0060 P   0  0  0  0  0  0  0  0  0  0  0  0
   23.0860   12.5180    6.3220 B   0  0  0  0  0  0  0  0  0  0  0  0
   18.0860   18.0390    5.5260 O   0  0  0  0  0  0  0  0  0  0  0  0
   22.4380   16.3150   10.3230 B   0  0  0  0  0  0  0  0  0  0  0  0
   21.0160   14.2760    5.2590 H   0  0  0  0  0  0  0  0  0  0  0  0
   18.5760   18.7580    7.8210 H   0  0  0  0  0  0  0  0  0  0  0  0
   21.2300   18.2390   10.0560 H   0  0  0  0  0  0  0  0  0  0  0  0
   19.5950   19.2080    9.6640 H   0  0  0  0  0  0  0  0  0  0  0  0
   17.1470   18.1680   10.8150 H   0  0  0  0  0  0  0  0  0  0  0  0
   23.1780   14.1050    8.7420 H   0  0  0  0  0  0  0  0  0  0  0  0
   19.4690   16.0640    5.0270 H   0  0  0  0  0  0  0  0  0  0  0  0
   22.8718   12.1207    5.3408 H   0  0  0  0  0  0  0  0  0  0  0  0
   23.8309   12.0455    6.9451 H   0  0  0  0  0  0  0  0  0  0  0  0
   21.9997   17.2102   10.7389 H   0  0  0  0  0  0  0  0  0  0  0  0
   23.2234   15.8002   10.8565 H   0  0  0  0  0  0  0  0  0  0  0  0
  2  1  2  0
  3  2  1  0
  5  4  1  0
  6  5  2  0
  7  6  1  0
  8  3  2  0
  8  6  1  0
  9  8  1  0
 10  1  1  0
 10  9  2  0
 11  3  1  0
 11  4  1  0
 15  7  1  0
 15 12  1  0
 15 13  1  0
 15 14  1  0
 16  1  1  0
 17  4  2  0
 18  9  1  0
 16 26  1  0
 16 27  1  0
 18 28  1  0
 18 29  1  0
 19  2  1  0
 20  5  1  0
 21  7  1  0
 22  7  1  0
 23 14  1  0
 24 10  1  0
 25 11  1  0
M  CHG  2  12  -1  13  -1
M  END
>  <Favorite_cresset>
false

>  <MW_cresset>
261.8

>  <#Atoms_cresset>
18

>  <SlogP_cresset>
-0.7

>  <TPSA_cresset>
95.4

>  <Flexibility_cresset>
5

>  <#RB_cresset>
5

>  <Rof5_cresset>
0

>  <Filename_cresset>
lig_h_16.mol2

>  <Confs_cresset>
0

>  <Poses_cresset>
0

>  <Activity (Primary)_cresset>
No Primary Activity Set

$$$$
