TWB
  xed2sdf           3D
 
 27 28  0  0  0  0  0  0  0  0999 V2000
   21.5190   14.0220    6.4110 C   0  0  0  0  0  0  0  0  0  0  0  0
   20.6800   14.8220    5.6830 C   0  0  0  0  0  0  0  0  0  0  0  0
   20.1050   15.9490    6.2450 C   0  0  0  0  0  0  0  0  0  0  0  0
   18.6370   17.7290    6.0670 C   0  0  0  0  0  0  0  0  0  0  0  0
   18.9150   18.1600    7.4020 C   0  0  0  0  0  0  0  0  0  0  0  0
   19.7760   17.4570    8.1600 C   0  0  0  0  0  0  0  0  0  0  0  0
   20.0580   18.0320    9.5280 C   0  0  0  0  0  0  0  0  0  0  0  0
   20.3970   16.2650    7.5740 C   0  0  0  0  0  0  0  0  0  0  0  0
   21.2480   15.4320    8.3050 C   0  0  0  0  0  0  0  0  0  0  0  0
   21.8050   14.3190    7.7330 C   0  0  0  0  0  0  0  0  0  0  0  0
   19.2610   16.6870    5.4660 O   0  0  0  0  0  0  0  0  0  0  0  0
   19.3160   17.9530   12.1330 O   0  5  0  0  0  0  0  0  0  0  0  0
   19.6049   15.7260   10.9120 O   0  5  0  0  0  0  0  0  0  0  0  0
   17.6110   17.2220   10.4150 O   0  0  0  0  0  0  0  0  0  0  0  0
   19.1560   17.1620   10.8600 P   0  0  0  0  0  0  0  0  0  0  0  0
   17.7770   18.4040    5.5110 O   0  0  0  0  0  0  0  0  0  0  0  0
   22.7210   13.3700    8.4920 C   0  0  0  0  0  0  0  0  0  0  0  0
   21.9270   13.2130    5.9880 H   0  0  0  0  0  0  0  0  0  0  0  0
   20.4730   14.5880    4.7330 H   0  0  0  0  0  0  0  0  0  0  0  0
   18.4620   18.9690    7.7520 H   0  0  0  0  0  0  0  0  0  0  0  0
   21.2390   18.0430    9.7430 H   0  0  0  0  0  0  0  0  0  0  0  0
   19.6540   19.1600    9.5920 H   0  0  0  0  0  0  0  0  0  0  0  0
   21.4470   15.6460    9.2610 H   0  0  0  0  0  0  0  0  0  0  0  0
   17.1860   18.0620   10.7620 H   0  0  0  0  0  0  0  0  0  0  0  0
   23.8220   13.3870    8.0100 H   0  0  0  0  0  0  0  0  0  0  0  0
   22.7940   13.6460    9.6600 H   0  0  0  0  0  0  0  0  0  0  0  0
   22.3010   12.2490    8.3890 H   0  0  0  0  0  0  0  0  0  0  0  0
  2  1  2  0
  3  2  1  0
  5  4  1  0
  6  5  2  0
  7  6  1  0
  8  3  2  0
  8  6  1  0
  9  8  1  0
 10  1  1  0
 10  9  2  0
 11  3  1  0
 11  4  1  0
 15  7  1  0
 15 12  1  0
 15 13  1  0
 15 14  1  0
 16  4  2  0
 17 10  1  0
 18  1  1  0
 19  2  1  0
 20  5  1  0
 21  7  1  0
 22  7  1  0
 23  9  1  0
 24 14  1  0
 25 17  1  0
 26 17  1  0
 27 17  1  0
M  CHG  2  12  -1  13  -1
M  END
>  <Favorite_cresset>
false

>  <MW_cresset>
253.2

>  <#Atoms_cresset>
17

>  <SlogP_cresset>
1.4

>  <TPSA_cresset>
92.7

>  <Flexibility_cresset>
3

>  <#RB_cresset>
3

>  <Rof5_cresset>
0

>  <Filename_cresset>
lig_h_5.mol2

>  <Confs_cresset>
0

>  <Poses_cresset>
0

>  <Activity (Primary)_cresset>
No Primary Activity Set

$$$$
