TWB
  xed2sdf           3D
 
 30 31  0  0  0  0  0  0  0  0999 V2000
   21.5280   14.0200    6.3150 C   0  0  0  0  0  0  0  0  0  0  0  0
   20.6240   14.8130    5.6720 C   0  0  0  0  0  0  0  0  0  0  0  0
   20.1150   15.9520    6.2760 C   0  0  0  0  0  0  0  0  0  0  0  0
   18.6390   17.7220    6.1180 C   0  0  0  0  0  0  0  0  0  0  0  0
   18.9170   18.1360    7.4540 C   0  0  0  0  0  0  0  0  0  0  0  0
   19.8190   17.4630    8.1940 C   0  0  0  0  0  0  0  0  0  0  0  0
   19.9840   18.0970    9.5610 C   0  0  0  0  0  0  0  0  0  0  0  0
   20.4900   16.2960    7.5850 C   0  0  0  0  0  0  0  0  0  0  0  0
   21.4610   15.4960    8.2130 C   0  0  0  0  0  0  0  0  0  0  0  0
   21.9510   14.3860    7.5780 C   0  0  0  0  0  0  0  0  0  0  0  0
   19.2420   16.6720    5.5200 O   0  0  0  0  0  0  0  0  0  0  0  0
   19.2530   17.9840   12.1660 O   0  5  0  0  0  0  0  0  0  0  0  0
   19.4920   15.7590   10.9360 O   0  5  0  0  0  0  0  0  0  0  0  0
   17.5230   17.2680   10.4650 O   0  0  0  0  0  0  0  0  0  0  0  0
   19.0740   17.2040   10.8880 P   0  0  0  0  0  0  0  0  0  0  0  0
   22.0620   12.7560    5.6680 C   0  0  0  0  0  0  0  0  0  0  0  0
   17.7970   18.4110    5.5530 O   0  0  0  0  0  0  0  0  0  0  0  0
   22.1250   15.6880    9.5750 C   0  0  0  0  0  0  0  0  0  0  0  0
   20.3180   14.5720    4.7510 H   0  0  0  0  0  0  0  0  0  0  0  0
   18.4300   18.9160    7.8180 H   0  0  0  0  0  0  0  0  0  0  0  0
   21.1440   18.2680    9.8110 H   0  0  0  0  0  0  0  0  0  0  0  0
   19.4880   19.1890    9.5980 H   0  0  0  0  0  0  0  0  0  0  0  0
   17.1150   18.1260   10.7860 H   0  0  0  0  0  0  0  0  0  0  0  0
   22.6340   13.8190    8.0400 H   0  0  0  0  0  0  0  0  0  0  0  0
   23.1720   12.5080    6.0530 H   0  0  0  0  0  0  0  0  0  0  0  0
   22.0850   12.8640    4.4730 H   0  0  0  0  0  0  0  0  0  0  0  0
   21.3390   11.8470    5.9670 H   0  0  0  0  0  0  0  0  0  0  0  0
   23.1480   16.2950    9.4300 H   0  0  0  0  0  0  0  0  0  0  0  0
   22.3990   14.6250   10.0640 H   0  0  0  0  0  0  0  0  0  0  0  0
   21.4600   16.2420   10.3940 H   0  0  0  0  0  0  0  0  0  0  0  0
  2  1  2  0
  3  2  1  0
  5  4  1  0
  6  5  2  0
  7  6  1  0
  8  3  2  0
  8  6  1  0
  9  8  1  0
 10  1  1  0
 10  9  2  0
 11  3  1  0
 11  4  1  0
 15  7  1  0
 15 12  1  0
 15 13  1  0
 15 14  1  0
 16  1  1  0
 17  4  2  0
 18  9  1  0
 19  2  1  0
 20  5  1  0
 21  7  1  0
 22  7  1  0
 23 14  1  0
 24 10  1  0
 25 16  1  0
 26 16  1  0
 27 16  1  0
 28 18  1  0
 29 18  1  0
 30 18  1  0
M  CHG  2  12  -1  13  -1
M  END
>  <Favorite_cresset>
false

>  <MW_cresset>
267.2

>  <#Atoms_cresset>
18

>  <SlogP_cresset>
1.7

>  <TPSA_cresset>
92.6

>  <Flexibility_cresset>
3

>  <#RB_cresset>
3

>  <Rof5_cresset>
0

>  <Filename_cresset>
lig_h_6.mol2

>  <Confs_cresset>
0

>  <Poses_cresset>
0

>  <Activity (Primary)_cresset>
No Primary Activity Set

$$$$
