TWB
  xed2sdf           3D
 
 31 32  0  0  0  0  0  0  0  0999 V2000
   21.4640   14.0850    6.2260 C   0  0  0  0  0  0  0  0  0  0  0  0
   20.5320   14.8510    5.5760 C   0  0  0  0  0  0  0  0  0  0  0  0
   20.0030   15.9870    6.1660 C   0  0  0  0  0  0  0  0  0  0  0  0
   18.5320   17.7660    6.0460 C   0  0  0  0  0  0  0  0  0  0  0  0
   18.8500   18.1920    7.3680 C   0  0  0  0  0  0  0  0  0  0  0  0
   19.7550   17.5070    8.0910 C   0  0  0  0  0  0  0  0  0  0  0  0
   19.9940   18.1060    9.4660 C   0  0  0  0  0  0  0  0  0  0  0  0
   20.3960   16.3430    7.4620 C   0  0  0  0  0  0  0  0  0  0  0  0
   21.3700   15.5700    8.1170 C   0  0  0  0  0  0  0  0  0  0  0  0
   21.8880   14.4590    7.4860 C   0  0  0  0  0  0  0  0  0  0  0  0
   19.0920   16.6930    5.4400 O   0  0  0  0  0  0  0  0  0  0  0  0
   19.3450   17.9830   12.0900 O   0  5  0  0  0  0  0  0  0  0  0  0
   19.6580   15.7560   10.8790 O   0  5  0  0  0  0  0  0  0  0  0  0
   17.6170   17.1890   10.4170 O   0  0  0  0  0  0  0  0  0  0  0  0
   19.1720   17.1820   10.8230 P   0  0  0  0  0  0  0  0  0  0  0  0
   22.0190   12.8200    5.5930 C   0  0  0  0  0  0  0  0  0  0  0  0
   17.6930   18.4710    5.5030 O   0  0  0  0  0  0  0  0  0  0  0  0
   21.7530   15.9180    9.3500 O   0  0  0  0  0  0  0  0  0  0  0  0
   23.0910   15.6440    9.8000 C   0  0  0  0  0  0  0  0  0  0  0  0
   20.2190   14.5870    4.6620 H   0  0  0  0  0  0  0  0  0  0  0  0
   18.3900   18.9830    7.7400 H   0  0  0  0  0  0  0  0  0  0  0  0
   21.1660   18.2470    9.6850 H   0  0  0  0  0  0  0  0  0  0  0  0
   19.4940   19.1920    9.5530 H   0  0  0  0  0  0  0  0  0  0  0  0
   17.1800   18.0280   10.7500 H   0  0  0  0  0  0  0  0  0  0  0  0
   22.5750   13.9010    7.9500 H   0  0  0  0  0  0  0  0  0  0  0  0
   23.1740   12.6750    5.8860 H   0  0  0  0  0  0  0  0  0  0  0  0
   21.9310   12.8420    4.3960 H   0  0  0  0  0  0  0  0  0  0  0  0
   21.4010   11.8770    6.0050 H   0  0  0  0  0  0  0  0  0  0  0  0
   23.8680   16.1440    9.0340 H   0  0  0  0  0  0  0  0  0  0  0  0
   23.2080   16.1670   10.8730 H   0  0  0  0  0  0  0  0  0  0  0  0
   23.2810   14.4690    9.9430 H   0  0  0  0  0  0  0  0  0  0  0  0
  2  1  2  0
  3  2  1  0
  5  4  1  0
  6  5  2  0
  7  6  1  0
  8  3  2  0
  8  6  1  0
  9  8  1  0
 10  1  1  0
 10  9  2  0
 11  3  1  0
 11  4  1  0
 15  7  1  0
 15 12  1  0
 15 13  1  0
 15 14  1  0
 16  1  1  0
 17  4  2  0
 18  9  1  0
 19 18  1  0
 20  2  1  0
 21  5  1  0
 22  7  1  0
 23  7  1  0
 24 14  1  0
 25 10  1  0
 26 16  1  0
 27 16  1  0
 28 16  1  0
 29 19  1  0
 30 19  1  0
 31 19  1  0
M  CHG  2  12  -1  13  -1
M  END
>  <Favorite_cresset>
false

>  <MW_cresset>
283.2

>  <#Atoms_cresset>
19

>  <SlogP_cresset>
1.4

>  <TPSA_cresset>
101.9

>  <Flexibility_cresset>
3.5

>  <#RB_cresset>
4

>  <Rof5_cresset>
0

>  <Filename_cresset>
lig_h_7.mol2

>  <Confs_cresset>
0

>  <Poses_cresset>
0

>  <Activity (Primary)_cresset>
No Primary Activity Set

$$$$
