@<TRIPOS>MOLECULE
WAT
    3     2     1     0     0
SMALL
bcc


@<TRIPOS>ATOM
      1 O          -34.1240     3.9650     4.5060 OW         1 WAT      -0.785000
      2 H1         -34.6870     3.8680     3.8900 HW         1 WAT       0.392000
      3 H2         -33.3890     4.0460     4.1070 HW         1 WAT       0.392000
@<TRIPOS>BOND
     1     1     2 1   
     2     1     3 1   
@<TRIPOS>SUBSTRUCTURE
     1 WAT         1 TEMP              0 ****  ****    0 ROOT
