TWB
  xed2sdf           3D
 
 29 30  0  0  0  0  0  0  0  0999 V2000
   21.4350   14.0610    6.1590 C   0  0  0  0  0  0  0  0  0  0  0  0
   20.5010   14.8400    5.5310 C   0  0  0  0  0  0  0  0  0  0  0  0
   19.9930   15.9750    6.1420 C   0  0  0  0  0  0  0  0  0  0  0  0
   18.5230   17.7580    6.0440 C   0  0  0  0  0  0  0  0  0  0  0  0
   18.8400   18.1620    7.3770 C   0  0  0  0  0  0  0  0  0  0  0  0
   19.7530   17.4690    8.0840 C   0  0  0  0  0  0  0  0  0  0  0  0
   20.0080   18.0330    9.4670 C   0  0  0  0  0  0  0  0  0  0  0  0
   20.4070   16.3260    7.4320 C   0  0  0  0  0  0  0  0  0  0  0  0
   21.4150   15.5540    8.0260 C   0  0  0  0  0  0  0  0  0  0  0  0
   21.8970   14.4400    7.4040 C   0  0  0  0  0  0  0  0  0  0  0  0
   19.0840   16.6920    5.4270 O   0  0  0  0  0  0  0  0  0  0  0  0
   19.2950   18.0060   12.0750 O   0  5  0  0  0  0  0  0  0  0  0  0
   19.5389   15.7400   10.9270 O   0  5  0  0  0  0  0  0  0  0  0  0
   17.5510   17.2230   10.4190 O   0  0  0  0  0  0  0  0  0  0  0  0
   19.1060   17.1800   10.8270 P   0  0  0  0  0  0  0  0  0  0  0  0
   21.9790   12.8030    5.5120 C   0  0  0  0  0  0  0  0  0  0  0  0
   17.6830   18.4660    5.5020 O   0  0  0  0  0  0  0  0  0  0  0  0
   22.2130   15.9810    9.6740 B   0  0  0  0  0  0  0  0  0  0  0  0
   20.1740   14.5880    4.6190 H   0  0  0  0  0  0  0  0  0  0  0  0
   18.3740   18.9430    7.7670 H   0  0  0  0  0  0  0  0  0  0  0  0
   21.1840   18.0590    9.6920 H   0  0  0  0  0  0  0  0  0  0  0  0
   19.6080   19.1620    9.5450 H   0  0  0  0  0  0  0  0  0  0  0  0
   17.1350   18.0750   10.7440 H   0  0  0  0  0  0  0  0  0  0  0  0
   22.6020   13.8960    7.8630 H   0  0  0  0  0  0  0  0  0  0  0  0
   23.1750   12.8730    5.4290 H   0  0  0  0  0  0  0  0  0  0  0  0
   21.5140   12.6680    4.4130 H   0  0  0  0  0  0  0  0  0  0  0  0
   21.6840   11.8490    6.1810 H   0  0  0  0  0  0  0  0  0  0  0  0
   21.8984   16.8616   10.2143 H   0  0  0  0  0  0  0  0  0  0  0  0
   22.9860   15.3456   10.0804 H   0  0  0  0  0  0  0  0  0  0  0  0
  2  1  2  0
  3  2  1  0
  5  4  1  0
  6  5  2  0
  7  6  1  0
  8  3  2  0
  8  6  1  0
  9  8  1  0
 10  1  1  0
 10  9  2  0
 11  3  1  0
 11  4  1  0
 15  7  1  0
 15 12  1  0
 15 13  1  0
 15 14  1  0
 16  1  1  0
 17  4  2  0
 18  9  1  0
 18 28  1  0
 18 29  1  0
 19  2  1  0
 20  5  1  0
 21  7  1  0
 22  7  1  0
 23 14  1  0
 24 10  1  0
 25 16  1  0
 26 16  1  0
 27 16  1  0
M  CHG  2  12  -1  13  -1
M  END
>  <Favorite_cresset>
false

>  <MW_cresset>
265

>  <#Atoms_cresset>
18

>  <SlogP_cresset>
0.5

>  <TPSA_cresset>
92.6

>  <Flexibility_cresset>
4

>  <#RB_cresset>
4

>  <Rof5_cresset>
0

>  <Filename_cresset>
lig_h_9.mol2

>  <Confs_cresset>
0

>  <Poses_cresset>
0

>  <Activity (Primary)_cresset>
No Primary Activity Set

$$$$
